<?xml version="1.0" encoding="UTF-8"?>

<!-- generated on 11/23/21 14:15:36 by Eclipse SUMO netconvert Version 1.2.0
<configuration xmlns:xsi="http://www.w3.org/2001/XMLSchema-instance" xsi:noNamespaceSchemaLocation="http://sumo.dlr.de/xsd/netconvertConfiguration.xsd">

    <input>
        <node-files value="1.nod.xml"/>
        <edge-files value="1.edg.xml"/>
        <connection-files value="1.con.xml"/>
        <type-files value="1.typ.xml"/>
    </input>

    <output>
        <output-file value="1.net.xml"/>
    </output>

    <junctions>
        <no-turnarounds value="true"/>
    </junctions>

</configuration>
-->

<net version="1.1" junctionCornerDetail="5" limitTurnSpeed="5.50" xmlns:xsi="http://www.w3.org/2001/XMLSchema-instance" xsi:noNamespaceSchemaLocation="http://sumo.dlr.de/xsd/net_file.xsd">

    <location netOffset="0.00,-100.00" convBoundary="0.00,0.00,5000.00,0.00" origBoundary="0.00,100.00,5000.00,100.00" projParameter="!"/>

    <type id="a" priority="3" numLanes="3"/>

    <edge id="D1" from="1" to="2" priority="3" type="a">
        <lane id="D1_0" index="0" speed="25.00" length="5000.00" shape="0.00,-8.00 5000.00,-8.00"/>
        <lane id="D1_1" index="1" speed="30.00" length="5000.00" shape="0.00,-4.80 5000.00,-4.80"/>
        <lane id="D1_2" index="2" speed="31.00" length="5000.00" shape="0.00,-1.60 5000.00,-1.60"/>
    </edge>

    <junction id="1" type="dead_end" x="0.00" y="0.00" incLanes="" intLanes="" shape="0.00,0.00 0.00,-9.60"/>
    <junction id="2" type="dead_end" x="5000.00" y="0.00" incLanes="D1_0 D1_1 D1_2" intLanes="" shape="5000.00,-9.60 5000.00,0.00"/>

</net>
