<?xml version="1.0" encoding="UTF-8"?>

<!-- generated on 11/23/21 14:17:14 by Eclipse SUMO duarouter Version 1.2.0
<configuration xmlns:xsi="http://www.w3.org/2001/XMLSchema-instance" xsi:noNamespaceSchemaLocation="http://sumo.dlr.de/xsd/duarouterConfiguration.xsd">

    <input>
        <net-file value="1.net.xml"/>
        <route-files value="1.flow.xml"/>
    </input>

    <output>
        <output-file value="1.rou.xml"/>
        <alternatives-output value="1.rou.alt.xml"/>
    </output>

</configuration>
-->

<routes xmlns:xsi="http://www.w3.org/2001/XMLSchema-instance">
    <vType id="v1"/>
    <vehicle id="route1.0" type="v1" depart="0.00" departLane="0" color="yellow">
        <route edges="D1"/>
    </vehicle>
    <vehicle id="route2.0" type="v1" depart="0.00" departLane="1" color="yellow">
        <route edges="D1"/>
    </vehicle>
    <vehicle id="route3.0" type="v1" depart="0.00" departLane="2" color="yellow">
        <route edges="D1"/>
    </vehicle>
    <vehicle id="route2.1" type="v1" depart="8.53" departLane="1" color="yellow">
        <route edges="D1"/>
    </vehicle>
    <vehicle id="route1.1" type="v1" depart="8.55" departLane="0" color="yellow">
        <route edges="D1"/>
    </vehicle>
    <vehicle id="route3.1" type="v1" depart="8.55" departLane="2" color="yellow">
        <route edges="D1"/>
    </vehicle>
    <vehicle id="route2.2" type="v1" depart="17.06" departLane="1" color="yellow">
        <route edges="D1"/>
    </vehicle>
    <vehicle id="route1.2" type="v1" depart="17.10" departLane="0" color="yellow">
        <route edges="D1"/>
    </vehicle>
    <vehicle id="route3.2" type="v1" depart="17.10" departLane="2" color="yellow">
        <route edges="D1"/>
    </vehicle>
    <vehicle id="route2.3" type="v1" depart="25.59" departLane="1" color="yellow">
        <route edges="D1"/>
    </vehicle>
    <vehicle id="route1.3" type="v1" depart="25.65" departLane="0" color="yellow">
        <route edges="D1"/>
    </vehicle>
    <vehicle id="route3.3" type="v1" depart="25.65" departLane="2" color="yellow">
        <route edges="D1"/>
    </vehicle>
    <vehicle id="route2.4" type="v1" depart="34.12" departLane="1" color="yellow">
        <route edges="D1"/>
    </vehicle>
    <vehicle id="route1.4" type="v1" depart="34.20" departLane="0" color="yellow">
        <route edges="D1"/>
    </vehicle>
    <vehicle id="route3.4" type="v1" depart="34.20" departLane="2" color="yellow">
        <route edges="D1"/>
    </vehicle>
    <vehicle id="route2.5" type="v1" depart="42.65" departLane="1" color="yellow">
        <route edges="D1"/>
    </vehicle>
    <vehicle id="route1.5" type="v1" depart="42.76" departLane="0" color="yellow">
        <route edges="D1"/>
    </vehicle>
    <vehicle id="route3.5" type="v1" depart="42.76" departLane="2" color="yellow">
        <route edges="D1"/>
    </vehicle>
    <vehicle id="route2.6" type="v1" depart="51.18" departLane="1" color="yellow">
        <route edges="D1"/>
    </vehicle>
    <vehicle id="route1.6" type="v1" depart="51.31" departLane="0" color="yellow">
        <route edges="D1"/>
    </vehicle>
    <vehicle id="route3.6" type="v1" depart="51.31" departLane="2" color="yellow">
        <route edges="D1"/>
    </vehicle>
    <vehicle id="route2.7" type="v1" depart="59.71" departLane="1" color="yellow">
        <route edges="D1"/>
    </vehicle>
    <vehicle id="route1.7" type="v1" depart="59.86" departLane="0" color="yellow">
        <route edges="D1"/>
    </vehicle>
    <vehicle id="route3.7" type="v1" depart="59.86" departLane="2" color="yellow">
        <route edges="D1"/>
    </vehicle>
    <vehicle id="route2.8" type="v1" depart="68.24" departLane="1" color="yellow">
        <route edges="D1"/>
    </vehicle>
    <vehicle id="route1.8" type="v1" depart="68.41" departLane="0" color="yellow">
        <route edges="D1"/>
    </vehicle>
    <vehicle id="route3.8" type="v1" depart="68.41" departLane="2" color="yellow">
        <route edges="D1"/>
    </vehicle>
    <vehicle id="route2.9" type="v1" depart="76.77" departLane="1" color="yellow">
        <route edges="D1"/>
    </vehicle>
    <vehicle id="route1.9" type="v1" depart="76.96" departLane="0" color="yellow">
        <route edges="D1"/>
    </vehicle>
    <vehicle id="route3.9" type="v1" depart="76.96" departLane="2" color="yellow">
        <route edges="D1"/>
    </vehicle>
    <vehicle id="route2.10" type="v1" depart="85.30" departLane="1" color="yellow">
        <route edges="D1"/>
    </vehicle>
    <vehicle id="route1.10" type="v1" depart="85.51" departLane="0" color="yellow">
        <route edges="D1"/>
    </vehicle>
    <vehicle id="route3.10" type="v1" depart="85.51" departLane="2" color="yellow">
        <route edges="D1"/>
    </vehicle>
    <vehicle id="route2.11" type="v1" depart="93.83" departLane="1" color="yellow">
        <route edges="D1"/>
    </vehicle>
    <vehicle id="route1.11" type="v1" depart="94.06" departLane="0" color="yellow">
        <route edges="D1"/>
    </vehicle>
    <vehicle id="route3.11" type="v1" depart="94.06" departLane="2" color="yellow">
        <route edges="D1"/>
    </vehicle>
    <vehicle id="route2.12" type="v1" depart="102.36" departLane="1" color="yellow">
        <route edges="D1"/>
    </vehicle>
    <vehicle id="route1.12" type="v1" depart="102.61" departLane="0" color="yellow">
        <route edges="D1"/>
    </vehicle>
    <vehicle id="route3.12" type="v1" depart="102.61" departLane="2" color="yellow">
        <route edges="D1"/>
    </vehicle>
    <vehicle id="route2.13" type="v1" depart="110.89" departLane="1" color="yellow">
        <route edges="D1"/>
    </vehicle>
    <vehicle id="route1.13" type="v1" depart="111.16" departLane="0" color="yellow">
        <route edges="D1"/>
    </vehicle>
    <vehicle id="route3.13" type="v1" depart="111.16" departLane="2" color="yellow">
        <route edges="D1"/>
    </vehicle>
    <vehicle id="route2.14" type="v1" depart="119.42" departLane="1" color="yellow">
        <route edges="D1"/>
    </vehicle>
    <vehicle id="route1.14" type="v1" depart="119.71" departLane="0" color="yellow">
        <route edges="D1"/>
    </vehicle>
    <vehicle id="route3.14" type="v1" depart="119.71" departLane="2" color="yellow">
        <route edges="D1"/>
    </vehicle>
    <vehicle id="route2.15" type="v1" depart="127.95" departLane="1" color="yellow">
        <route edges="D1"/>
    </vehicle>
    <vehicle id="route1.15" type="v1" depart="128.26" departLane="0" color="yellow">
        <route edges="D1"/>
    </vehicle>
    <vehicle id="route3.15" type="v1" depart="128.26" departLane="2" color="yellow">
        <route edges="D1"/>
    </vehicle>
    <vehicle id="route2.16" type="v1" depart="136.48" departLane="1" color="yellow">
        <route edges="D1"/>
    </vehicle>
    <vehicle id="route1.16" type="v1" depart="136.82" departLane="0" color="yellow">
        <route edges="D1"/>
    </vehicle>
    <vehicle id="route3.16" type="v1" depart="136.82" departLane="2" color="yellow">
        <route edges="D1"/>
    </vehicle>
    <vehicle id="route2.17" type="v1" depart="145.01" departLane="1" color="yellow">
        <route edges="D1"/>
    </vehicle>
    <vehicle id="route1.17" type="v1" depart="145.37" departLane="0" color="yellow">
        <route edges="D1"/>
    </vehicle>
    <vehicle id="route3.17" type="v1" depart="145.37" departLane="2" color="yellow">
        <route edges="D1"/>
    </vehicle>
    <vehicle id="route2.18" type="v1" depart="153.54" departLane="1" color="yellow">
        <route edges="D1"/>
    </vehicle>
    <vehicle id="route1.18" type="v1" depart="153.92" departLane="0" color="yellow">
        <route edges="D1"/>
    </vehicle>
    <vehicle id="route3.18" type="v1" depart="153.92" departLane="2" color="yellow">
        <route edges="D1"/>
    </vehicle>
    <vehicle id="route2.19" type="v1" depart="162.07" departLane="1" color="yellow">
        <route edges="D1"/>
    </vehicle>
    <vehicle id="route1.19" type="v1" depart="162.47" departLane="0" color="yellow">
        <route edges="D1"/>
    </vehicle>
    <vehicle id="route3.19" type="v1" depart="162.47" departLane="2" color="yellow">
        <route edges="D1"/>
    </vehicle>
    <vehicle id="route2.20" type="v1" depart="170.60" departLane="1" color="yellow">
        <route edges="D1"/>
    </vehicle>
    <vehicle id="route1.20" type="v1" depart="171.02" departLane="0" color="yellow">
        <route edges="D1"/>
    </vehicle>
    <vehicle id="route3.20" type="v1" depart="171.02" departLane="2" color="yellow">
        <route edges="D1"/>
    </vehicle>
    <vehicle id="route2.21" type="v1" depart="179.13" departLane="1" color="yellow">
        <route edges="D1"/>
    </vehicle>
    <vehicle id="route1.21" type="v1" depart="179.57" departLane="0" color="yellow">
        <route edges="D1"/>
    </vehicle>
    <vehicle id="route3.21" type="v1" depart="179.57" departLane="2" color="yellow">
        <route edges="D1"/>
    </vehicle>
    <vehicle id="route2.22" type="v1" depart="187.66" departLane="1" color="yellow">
        <route edges="D1"/>
    </vehicle>
    <vehicle id="route1.22" type="v1" depart="188.12" departLane="0" color="yellow">
        <route edges="D1"/>
    </vehicle>
    <vehicle id="route3.22" type="v1" depart="188.12" departLane="2" color="yellow">
        <route edges="D1"/>
    </vehicle>
    <vehicle id="route2.23" type="v1" depart="196.19" departLane="1" color="yellow">
        <route edges="D1"/>
    </vehicle>
    <vehicle id="route1.23" type="v1" depart="196.67" departLane="0" color="yellow">
        <route edges="D1"/>
    </vehicle>
    <vehicle id="route3.23" type="v1" depart="196.67" departLane="2" color="yellow">
        <route edges="D1"/>
    </vehicle>
    <vehicle id="route2.24" type="v1" depart="204.72" departLane="1" color="yellow">
        <route edges="D1"/>
    </vehicle>
    <vehicle id="route1.24" type="v1" depart="205.22" departLane="0" color="yellow">
        <route edges="D1"/>
    </vehicle>
    <vehicle id="route3.24" type="v1" depart="205.22" departLane="2" color="yellow">
        <route edges="D1"/>
    </vehicle>
    <vehicle id="route2.25" type="v1" depart="213.25" departLane="1" color="yellow">
        <route edges="D1"/>
    </vehicle>
    <vehicle id="route1.25" type="v1" depart="213.78" departLane="0" color="yellow">
        <route edges="D1"/>
    </vehicle>
    <vehicle id="route3.25" type="v1" depart="213.78" departLane="2" color="yellow">
        <route edges="D1"/>
    </vehicle>
    <vehicle id="route2.26" type="v1" depart="221.78" departLane="1" color="yellow">
        <route edges="D1"/>
    </vehicle>
    <vehicle id="route1.26" type="v1" depart="222.33" departLane="0" color="yellow">
        <route edges="D1"/>
    </vehicle>
    <vehicle id="route3.26" type="v1" depart="222.33" departLane="2" color="yellow">
        <route edges="D1"/>
    </vehicle>
    <vehicle id="route2.27" type="v1" depart="230.31" departLane="1" color="yellow">
        <route edges="D1"/>
    </vehicle>
    <vehicle id="route1.27" type="v1" depart="230.88" departLane="0" color="yellow">
        <route edges="D1"/>
    </vehicle>
    <vehicle id="route3.27" type="v1" depart="230.88" departLane="2" color="yellow">
        <route edges="D1"/>
    </vehicle>
    <vehicle id="route2.28" type="v1" depart="238.84" departLane="1" color="yellow">
        <route edges="D1"/>
    </vehicle>
    <vehicle id="route1.28" type="v1" depart="239.43" departLane="0" color="yellow">
        <route edges="D1"/>
    </vehicle>
    <vehicle id="route3.28" type="v1" depart="239.43" departLane="2" color="yellow">
        <route edges="D1"/>
    </vehicle>
    <vehicle id="route2.29" type="v1" depart="247.37" departLane="1" color="yellow">
        <route edges="D1"/>
    </vehicle>
    <vehicle id="route1.29" type="v1" depart="247.98" departLane="0" color="yellow">
        <route edges="D1"/>
    </vehicle>
    <vehicle id="route3.29" type="v1" depart="247.98" departLane="2" color="yellow">
        <route edges="D1"/>
    </vehicle>
    <vehicle id="route2.30" type="v1" depart="255.90" departLane="1" color="yellow">
        <route edges="D1"/>
    </vehicle>
    <vehicle id="route1.30" type="v1" depart="256.53" departLane="0" color="yellow">
        <route edges="D1"/>
    </vehicle>
    <vehicle id="route3.30" type="v1" depart="256.53" departLane="2" color="yellow">
        <route edges="D1"/>
    </vehicle>
    <vehicle id="route2.31" type="v1" depart="264.43" departLane="1" color="yellow">
        <route edges="D1"/>
    </vehicle>
    <vehicle id="route1.31" type="v1" depart="265.08" departLane="0" color="yellow">
        <route edges="D1"/>
    </vehicle>
    <vehicle id="route3.31" type="v1" depart="265.08" departLane="2" color="yellow">
        <route edges="D1"/>
    </vehicle>
    <vehicle id="route2.32" type="v1" depart="272.96" departLane="1" color="yellow">
        <route edges="D1"/>
    </vehicle>
    <vehicle id="route1.32" type="v1" depart="273.63" departLane="0" color="yellow">
        <route edges="D1"/>
    </vehicle>
    <vehicle id="route3.32" type="v1" depart="273.63" departLane="2" color="yellow">
        <route edges="D1"/>
    </vehicle>
    <vehicle id="route2.33" type="v1" depart="281.49" departLane="1" color="yellow">
        <route edges="D1"/>
    </vehicle>
    <vehicle id="route1.33" type="v1" depart="282.18" departLane="0" color="yellow">
        <route edges="D1"/>
    </vehicle>
    <vehicle id="route3.33" type="v1" depart="282.18" departLane="2" color="yellow">
        <route edges="D1"/>
    </vehicle>
    <vehicle id="route2.34" type="v1" depart="290.02" departLane="1" color="yellow">
        <route edges="D1"/>
    </vehicle>
    <vehicle id="route1.34" type="v1" depart="290.73" departLane="0" color="yellow">
        <route edges="D1"/>
    </vehicle>
    <vehicle id="route3.34" type="v1" depart="290.73" departLane="2" color="yellow">
        <route edges="D1"/>
    </vehicle>
    <vehicle id="route2.35" type="v1" depart="298.55" departLane="1" color="yellow">
        <route edges="D1"/>
    </vehicle>
    <vehicle id="route1.35" type="v1" depart="299.29" departLane="0" color="yellow">
        <route edges="D1"/>
    </vehicle>
    <vehicle id="route3.35" type="v1" depart="299.29" departLane="2" color="yellow">
        <route edges="D1"/>
    </vehicle>
    <vehicle id="route2.36" type="v1" depart="307.08" departLane="1" color="yellow">
        <route edges="D1"/>
    </vehicle>
    <vehicle id="route1.36" type="v1" depart="307.84" departLane="0" color="yellow">
        <route edges="D1"/>
    </vehicle>
    <vehicle id="route3.36" type="v1" depart="307.84" departLane="2" color="yellow">
        <route edges="D1"/>
    </vehicle>
    <vehicle id="route2.37" type="v1" depart="315.61" departLane="1" color="yellow">
        <route edges="D1"/>
    </vehicle>
    <vehicle id="route1.37" type="v1" depart="316.39" departLane="0" color="yellow">
        <route edges="D1"/>
    </vehicle>
    <vehicle id="route3.37" type="v1" depart="316.39" departLane="2" color="yellow">
        <route edges="D1"/>
    </vehicle>
    <vehicle id="route2.38" type="v1" depart="324.14" departLane="1" color="yellow">
        <route edges="D1"/>
    </vehicle>
    <vehicle id="route1.38" type="v1" depart="324.94" departLane="0" color="yellow">
        <route edges="D1"/>
    </vehicle>
    <vehicle id="route3.38" type="v1" depart="324.94" departLane="2" color="yellow">
        <route edges="D1"/>
    </vehicle>
    <vehicle id="route2.39" type="v1" depart="332.67" departLane="1" color="yellow">
        <route edges="D1"/>
    </vehicle>
    <vehicle id="route1.39" type="v1" depart="333.49" departLane="0" color="yellow">
        <route edges="D1"/>
    </vehicle>
    <vehicle id="route3.39" type="v1" depart="333.49" departLane="2" color="yellow">
        <route edges="D1"/>
    </vehicle>
    <vehicle id="route2.40" type="v1" depart="341.20" departLane="1" color="yellow">
        <route edges="D1"/>
    </vehicle>
    <vehicle id="route1.40" type="v1" depart="342.04" departLane="0" color="yellow">
        <route edges="D1"/>
    </vehicle>
    <vehicle id="route3.40" type="v1" depart="342.04" departLane="2" color="yellow">
        <route edges="D1"/>
    </vehicle>
    <vehicle id="route2.41" type="v1" depart="349.73" departLane="1" color="yellow">
        <route edges="D1"/>
    </vehicle>
    <vehicle id="route1.41" type="v1" depart="350.59" departLane="0" color="yellow">
        <route edges="D1"/>
    </vehicle>
    <vehicle id="route3.41" type="v1" depart="350.59" departLane="2" color="yellow">
        <route edges="D1"/>
    </vehicle>
    <vehicle id="route2.42" type="v1" depart="358.26" departLane="1" color="yellow">
        <route edges="D1"/>
    </vehicle>
    <vehicle id="route1.42" type="v1" depart="359.14" departLane="0" color="yellow">
        <route edges="D1"/>
    </vehicle>
    <vehicle id="route3.42" type="v1" depart="359.14" departLane="2" color="yellow">
        <route edges="D1"/>
    </vehicle>
    <vehicle id="route2.43" type="v1" depart="366.79" departLane="1" color="yellow">
        <route edges="D1"/>
    </vehicle>
    <vehicle id="route1.43" type="v1" depart="367.69" departLane="0" color="yellow">
        <route edges="D1"/>
    </vehicle>
    <vehicle id="route3.43" type="v1" depart="367.69" departLane="2" color="yellow">
        <route edges="D1"/>
    </vehicle>
    <vehicle id="route2.44" type="v1" depart="375.32" departLane="1" color="yellow">
        <route edges="D1"/>
    </vehicle>
    <vehicle id="route1.44" type="v1" depart="376.24" departLane="0" color="yellow">
        <route edges="D1"/>
    </vehicle>
    <vehicle id="route3.44" type="v1" depart="376.24" departLane="2" color="yellow">
        <route edges="D1"/>
    </vehicle>
    <vehicle id="route2.45" type="v1" depart="383.85" departLane="1" color="yellow">
        <route edges="D1"/>
    </vehicle>
    <vehicle id="route1.45" type="v1" depart="384.80" departLane="0" color="yellow">
        <route edges="D1"/>
    </vehicle>
    <vehicle id="route3.45" type="v1" depart="384.80" departLane="2" color="yellow">
        <route edges="D1"/>
    </vehicle>
    <vehicle id="route2.46" type="v1" depart="392.38" departLane="1" color="yellow">
        <route edges="D1"/>
    </vehicle>
    <vehicle id="route1.46" type="v1" depart="393.35" departLane="0" color="yellow">
        <route edges="D1"/>
    </vehicle>
    <vehicle id="route3.46" type="v1" depart="393.35" departLane="2" color="yellow">
        <route edges="D1"/>
    </vehicle>
    <vehicle id="route2.47" type="v1" depart="400.91" departLane="1" color="yellow">
        <route edges="D1"/>
    </vehicle>
    <vehicle id="route1.47" type="v1" depart="401.90" departLane="0" color="yellow">
        <route edges="D1"/>
    </vehicle>
    <vehicle id="route3.47" type="v1" depart="401.90" departLane="2" color="yellow">
        <route edges="D1"/>
    </vehicle>
    <vehicle id="route2.48" type="v1" depart="409.44" departLane="1" color="yellow">
        <route edges="D1"/>
    </vehicle>
    <vehicle id="route1.48" type="v1" depart="410.45" departLane="0" color="yellow">
        <route edges="D1"/>
    </vehicle>
    <vehicle id="route3.48" type="v1" depart="410.45" departLane="2" color="yellow">
        <route edges="D1"/>
    </vehicle>
    <vehicle id="route2.49" type="v1" depart="417.97" departLane="1" color="yellow">
        <route edges="D1"/>
    </vehicle>
    <vehicle id="route1.49" type="v1" depart="419.00" departLane="0" color="yellow">
        <route edges="D1"/>
    </vehicle>
    <vehicle id="route3.49" type="v1" depart="419.00" departLane="2" color="yellow">
        <route edges="D1"/>
    </vehicle>
    <vehicle id="route2.50" type="v1" depart="426.50" departLane="1" color="yellow">
        <route edges="D1"/>
    </vehicle>
    <vehicle id="route1.50" type="v1" depart="427.55" departLane="0" color="yellow">
        <route edges="D1"/>
    </vehicle>
    <vehicle id="route3.50" type="v1" depart="427.55" departLane="2" color="yellow">
        <route edges="D1"/>
    </vehicle>
    <vehicle id="route2.51" type="v1" depart="435.03" departLane="1" color="yellow">
        <route edges="D1"/>
    </vehicle>
    <vehicle id="route1.51" type="v1" depart="436.10" departLane="0" color="yellow">
        <route edges="D1"/>
    </vehicle>
    <vehicle id="route3.51" type="v1" depart="436.10" departLane="2" color="yellow">
        <route edges="D1"/>
    </vehicle>
    <vehicle id="route2.52" type="v1" depart="443.56" departLane="1" color="yellow">
        <route edges="D1"/>
    </vehicle>
    <vehicle id="route1.52" type="v1" depart="444.65" departLane="0" color="yellow">
        <route edges="D1"/>
    </vehicle>
    <vehicle id="route3.52" type="v1" depart="444.65" departLane="2" color="yellow">
        <route edges="D1"/>
    </vehicle>
    <vehicle id="route2.53" type="v1" depart="452.09" departLane="1" color="yellow">
        <route edges="D1"/>
    </vehicle>
    <vehicle id="route1.53" type="v1" depart="453.20" departLane="0" color="yellow">
        <route edges="D1"/>
    </vehicle>
    <vehicle id="route3.53" type="v1" depart="453.20" departLane="2" color="yellow">
        <route edges="D1"/>
    </vehicle>
    <vehicle id="route2.54" type="v1" depart="460.62" departLane="1" color="yellow">
        <route edges="D1"/>
    </vehicle>
    <vehicle id="route1.54" type="v1" depart="461.75" departLane="0" color="yellow">
        <route edges="D1"/>
    </vehicle>
    <vehicle id="route3.54" type="v1" depart="461.75" departLane="2" color="yellow">
        <route edges="D1"/>
    </vehicle>
    <vehicle id="route2.55" type="v1" depart="469.15" departLane="1" color="yellow">
        <route edges="D1"/>
    </vehicle>
    <vehicle id="route1.55" type="v1" depart="470.31" departLane="0" color="yellow">
        <route edges="D1"/>
    </vehicle>
    <vehicle id="route3.55" type="v1" depart="470.31" departLane="2" color="yellow">
        <route edges="D1"/>
    </vehicle>
    <vehicle id="route2.56" type="v1" depart="477.68" departLane="1" color="yellow">
        <route edges="D1"/>
    </vehicle>
    <vehicle id="route1.56" type="v1" depart="478.86" departLane="0" color="yellow">
        <route edges="D1"/>
    </vehicle>
    <vehicle id="route3.56" type="v1" depart="478.86" departLane="2" color="yellow">
        <route edges="D1"/>
    </vehicle>
    <vehicle id="route2.57" type="v1" depart="486.21" departLane="1" color="yellow">
        <route edges="D1"/>
    </vehicle>
    <vehicle id="route1.57" type="v1" depart="487.41" departLane="0" color="yellow">
        <route edges="D1"/>
    </vehicle>
    <vehicle id="route3.57" type="v1" depart="487.41" departLane="2" color="yellow">
        <route edges="D1"/>
    </vehicle>
    <vehicle id="route2.58" type="v1" depart="494.74" departLane="1" color="yellow">
        <route edges="D1"/>
    </vehicle>
    <vehicle id="route1.58" type="v1" depart="495.96" departLane="0" color="yellow">
        <route edges="D1"/>
    </vehicle>
    <vehicle id="route3.58" type="v1" depart="495.96" departLane="2" color="yellow">
        <route edges="D1"/>
    </vehicle>
    <vehicle id="route2.59" type="v1" depart="503.27" departLane="1" color="yellow">
        <route edges="D1"/>
    </vehicle>
    <vehicle id="route1.59" type="v1" depart="504.51" departLane="0" color="yellow">
        <route edges="D1"/>
    </vehicle>
    <vehicle id="route3.59" type="v1" depart="504.51" departLane="2" color="yellow">
        <route edges="D1"/>
    </vehicle>
    <vehicle id="route2.60" type="v1" depart="511.80" departLane="1" color="yellow">
        <route edges="D1"/>
    </vehicle>
    <vehicle id="route1.60" type="v1" depart="513.06" departLane="0" color="yellow">
        <route edges="D1"/>
    </vehicle>
    <vehicle id="route3.60" type="v1" depart="513.06" departLane="2" color="yellow">
        <route edges="D1"/>
    </vehicle>
    <vehicle id="route2.61" type="v1" depart="520.33" departLane="1" color="yellow">
        <route edges="D1"/>
    </vehicle>
    <vehicle id="route1.61" type="v1" depart="521.61" departLane="0" color="yellow">
        <route edges="D1"/>
    </vehicle>
    <vehicle id="route3.61" type="v1" depart="521.61" departLane="2" color="yellow">
        <route edges="D1"/>
    </vehicle>
    <vehicle id="route2.62" type="v1" depart="528.86" departLane="1" color="yellow">
        <route edges="D1"/>
    </vehicle>
    <vehicle id="route1.62" type="v1" depart="530.16" departLane="0" color="yellow">
        <route edges="D1"/>
    </vehicle>
    <vehicle id="route3.62" type="v1" depart="530.16" departLane="2" color="yellow">
        <route edges="D1"/>
    </vehicle>
    <vehicle id="route2.63" type="v1" depart="537.39" departLane="1" color="yellow">
        <route edges="D1"/>
    </vehicle>
    <vehicle id="route1.63" type="v1" depart="538.71" departLane="0" color="yellow">
        <route edges="D1"/>
    </vehicle>
    <vehicle id="route3.63" type="v1" depart="538.71" departLane="2" color="yellow">
        <route edges="D1"/>
    </vehicle>
    <vehicle id="route2.64" type="v1" depart="545.92" departLane="1" color="yellow">
        <route edges="D1"/>
    </vehicle>
    <vehicle id="route1.64" type="v1" depart="547.26" departLane="0" color="yellow">
        <route edges="D1"/>
    </vehicle>
    <vehicle id="route3.64" type="v1" depart="547.26" departLane="2" color="yellow">
        <route edges="D1"/>
    </vehicle>
    <vehicle id="route2.65" type="v1" depart="554.45" departLane="1" color="yellow">
        <route edges="D1"/>
    </vehicle>
    <vehicle id="route1.65" type="v1" depart="555.82" departLane="0" color="yellow">
        <route edges="D1"/>
    </vehicle>
    <vehicle id="route3.65" type="v1" depart="555.82" departLane="2" color="yellow">
        <route edges="D1"/>
    </vehicle>
    <vehicle id="route2.66" type="v1" depart="562.98" departLane="1" color="yellow">
        <route edges="D1"/>
    </vehicle>
    <vehicle id="route1.66" type="v1" depart="564.37" departLane="0" color="yellow">
        <route edges="D1"/>
    </vehicle>
    <vehicle id="route3.66" type="v1" depart="564.37" departLane="2" color="yellow">
        <route edges="D1"/>
    </vehicle>
    <vehicle id="route2.67" type="v1" depart="571.51" departLane="1" color="yellow">
        <route edges="D1"/>
    </vehicle>
    <vehicle id="route1.67" type="v1" depart="572.92" departLane="0" color="yellow">
        <route edges="D1"/>
    </vehicle>
    <vehicle id="route3.67" type="v1" depart="572.92" departLane="2" color="yellow">
        <route edges="D1"/>
    </vehicle>
    <vehicle id="route2.68" type="v1" depart="580.04" departLane="1" color="yellow">
        <route edges="D1"/>
    </vehicle>
    <vehicle id="route1.68" type="v1" depart="581.47" departLane="0" color="yellow">
        <route edges="D1"/>
    </vehicle>
    <vehicle id="route3.68" type="v1" depart="581.47" departLane="2" color="yellow">
        <route edges="D1"/>
    </vehicle>
    <vehicle id="route2.69" type="v1" depart="588.57" departLane="1" color="yellow">
        <route edges="D1"/>
    </vehicle>
    <vehicle id="route1.69" type="v1" depart="590.02" departLane="0" color="yellow">
        <route edges="D1"/>
    </vehicle>
    <vehicle id="route3.69" type="v1" depart="590.02" departLane="2" color="yellow">
        <route edges="D1"/>
    </vehicle>
    <vehicle id="route2.70" type="v1" depart="597.10" departLane="1" color="yellow">
        <route edges="D1"/>
    </vehicle>
    <vehicle id="route1.70" type="v1" depart="598.57" departLane="0" color="yellow">
        <route edges="D1"/>
    </vehicle>
    <vehicle id="route3.70" type="v1" depart="598.57" departLane="2" color="yellow">
        <route edges="D1"/>
    </vehicle>
    <vehicle id="route2.71" type="v1" depart="605.63" departLane="1" color="yellow">
        <route edges="D1"/>
    </vehicle>
    <vehicle id="route1.71" type="v1" depart="607.12" departLane="0" color="yellow">
        <route edges="D1"/>
    </vehicle>
    <vehicle id="route3.71" type="v1" depart="607.12" departLane="2" color="yellow">
        <route edges="D1"/>
    </vehicle>
    <vehicle id="route2.72" type="v1" depart="614.16" departLane="1" color="yellow">
        <route edges="D1"/>
    </vehicle>
    <vehicle id="route1.72" type="v1" depart="615.67" departLane="0" color="yellow">
        <route edges="D1"/>
    </vehicle>
    <vehicle id="route3.72" type="v1" depart="615.67" departLane="2" color="yellow">
        <route edges="D1"/>
    </vehicle>
    <vehicle id="route2.73" type="v1" depart="622.69" departLane="1" color="yellow">
        <route edges="D1"/>
    </vehicle>
    <vehicle id="route1.73" type="v1" depart="624.22" departLane="0" color="yellow">
        <route edges="D1"/>
    </vehicle>
    <vehicle id="route3.73" type="v1" depart="624.22" departLane="2" color="yellow">
        <route edges="D1"/>
    </vehicle>
    <vehicle id="route2.74" type="v1" depart="631.22" departLane="1" color="yellow">
        <route edges="D1"/>
    </vehicle>
    <vehicle id="route1.74" type="v1" depart="632.77" departLane="0" color="yellow">
        <route edges="D1"/>
    </vehicle>
    <vehicle id="route3.74" type="v1" depart="632.77" departLane="2" color="yellow">
        <route edges="D1"/>
    </vehicle>
    <vehicle id="route2.75" type="v1" depart="639.75" departLane="1" color="yellow">
        <route edges="D1"/>
    </vehicle>
    <vehicle id="route1.75" type="v1" depart="641.33" departLane="0" color="yellow">
        <route edges="D1"/>
    </vehicle>
    <vehicle id="route3.75" type="v1" depart="641.33" departLane="2" color="yellow">
        <route edges="D1"/>
    </vehicle>
    <vehicle id="route2.76" type="v1" depart="648.28" departLane="1" color="yellow">
        <route edges="D1"/>
    </vehicle>
    <vehicle id="route1.76" type="v1" depart="649.88" departLane="0" color="yellow">
        <route edges="D1"/>
    </vehicle>