<?xml version="1.0" encoding="UTF-8"?>

<!-- generated on 11/25/21 20:47:58 by Eclipse SUMO duarouter Version 1.2.0
<configuration xmlns:xsi="http://www.w3.org/2001/XMLSchema-instance" xsi:noNamespaceSchemaLocation="http://sumo.dlr.de/xsd/duarouterConfiguration.xsd">

    <input>
        <net-file value="1.net.xml"/>
        <route-files value="2.flow.xml"/>
    </input>

    <output>
        <output-file value="2.rou.xml"/>
        <alternatives-output value="2.rou.alt.xml"/>
    </output>

</configuration>
-->

<routes xmlns:xsi="http://www.w3.org/2001/XMLSchema-instance">
    <vType id="v1"/>
    <vehicle id="route1.0" type="v1" depart="0.00" departLane="0" color="yellow">
        <route edges="D1"/>
    </vehicle>
    <vehicle id="route2.0" type="v1" depart="0.00" departLane="1" color="yellow">
        <route edges="D1"/>
    </vehicle>
    <vehicle id="route3.0" type="v1" depart="0.00" departLane="2" color="yellow">
        <route edges="D1"/>
    </vehicle>
    <vehicle id="route2.1" type="v1" depart="6.90" departLane="1" color="yellow">
        <route edges="D1"/>
    </vehicle>
    <vehicle id="route1.1" type="v1" depart="6.91" departLane="0" color="yellow">
        <route edges="D1"/>
    </vehicle>
    <vehicle id="route3.1" type="v1" depart="6.91" departLane="2" color="yellow">
        <route edges="D1"/>
    </vehicle>
    <vehicle id="route2.2" type="v1" depart="13.79" departLane="1" color="yellow">
        <route edges="D1"/>
    </vehicle>
    <vehicle id="route1.2" type="v1" depart="13.82" departLane="0" color="yellow">
        <route edges="D1"/>
    </vehicle>
    <vehicle id="route3.2" type="v1" depart="13.82" departLane="2" color="yellow">
        <route edges="D1"/>
    </vehicle>
    <vehicle id="route2.3" type="v1" depart="20.69" departLane="1" color="yellow">
        <route edges="D1"/>
    </vehicle>
    <vehicle id="route1.3" type="v1" depart="20.73" departLane="0" color="yellow">
        <route edges="D1"/>
    </vehicle>
    <vehicle id="route3.3" type="v1" depart="20.73" departLane="2" color="yellow">
        <route edges="D1"/>
    </vehicle>
    <vehicle id="route2.4" type="v1" depart="27.58" departLane="1" color="yellow">
        <route edges="D1"/>
    </vehicle>
    <vehicle id="route1.4" type="v1" depart="27.64" departLane="0" color="yellow">
        <route edges="D1"/>
    </vehicle>
    <vehicle id="route3.4" type="v1" depart="27.64" departLane="2" color="yellow">
        <route edges="D1"/>
    </vehicle>
    <vehicle id="route2.5" type="v1" depart="34.48" departLane="1" color="yellow">
        <route edges="D1"/>
    </vehicle>
    <vehicle id="route1.5" type="v1" depart="34.55" departLane="0" color="yellow">
        <route edges="D1"/>
    </vehicle>
    <vehicle id="route3.5" type="v1" depart="34.55" departLane="2" color="yellow">
        <route edges="D1"/>
    </vehicle>
    <vehicle id="route2.6" type="v1" depart="41.38" departLane="1" color="yellow">
        <route edges="D1"/>
    </vehicle>
    <vehicle id="route1.6" type="v1" depart="41.45" departLane="0" color="yellow">
        <route edges="D1"/>
    </vehicle>
    <vehicle id="route3.6" type="v1" depart="41.45" departLane="2" color="yellow">
        <route edges="D1"/>
    </vehicle>
    <vehicle id="route2.7" type="v1" depart="48.27" departLane="1" color="yellow">
        <route edges="D1"/>
    </vehicle>
    <vehicle id="route1.7" type="v1" depart="48.36" departLane="0" color="yellow">
        <route edges="D1"/>
    </vehicle>
    <vehicle id="route3.7" type="v1" depart="48.36" departLane="2" color="yellow">
        <route edges="D1"/>
    </vehicle>
    <vehicle id="route2.8" type="v1" depart="55.17" departLane="1" color="yellow">
        <route edges="D1"/>
    </vehicle>
    <vehicle id="route1.8" type="v1" depart="55.27" departLane="0" color="yellow">
        <route edges="D1"/>
    </vehicle>
    <vehicle id="route3.8" type="v1" depart="55.27" departLane="2" color="yellow">
        <route edges="D1"/>
    </vehicle>
    <vehicle id="route2.9" type="v1" depart="62.06" departLane="1" color="yellow">
        <route edges="D1"/>
    </vehicle>
    <vehicle id="route1.9" type="v1" depart="62.18" departLane="0" color="yellow">
        <route edges="D1"/>
    </vehicle>
    <vehicle id="route3.9" type="v1" depart="62.18" departLane="2" color="yellow">
        <route edges="D1"/>
    </vehicle>
    <vehicle id="route2.10" type="v1" depart="68.96" departLane="1" color="yellow">
        <route edges="D1"/>
    </vehicle>
    <vehicle id="route1.10" type="v1" depart="69.09" departLane="0" color="yellow">
        <route edges="D1"/>
    </vehicle>
    <vehicle id="route3.10" type="v1" depart="69.09" departLane="2" color="yellow">
        <route edges="D1"/>
    </vehicle>
    <vehicle id="route2.11" type="v1" depart="75.86" departLane="1" color="yellow">
        <route edges="D1"/>
    </vehicle>
    <vehicle id="route1.11" type="v1" depart="76.00" departLane="0" color="yellow">
        <route edges="D1"/>
    </vehicle>
    <vehicle id="route3.11" type="v1" depart="76.00" departLane="2" color="yellow">
        <route edges="D1"/>
    </vehicle>
    <vehicle id="route2.12" type="v1" depart="82.75" departLane="1" color="yellow">
        <route edges="D1"/>
    </vehicle>
    <vehicle id="route1.12" type="v1" depart="82.91" departLane="0" color="yellow">
        <route edges="D1"/>
    </vehicle>
    <vehicle id="route3.12" type="v1" depart="82.91" departLane="2" color="yellow">
        <route edges="D1"/>
    </vehicle>
    <vehicle id="route2.13" type="v1" depart="89.65" departLane="1" color="yellow">
        <route edges="D1"/>
    </vehicle>
    <vehicle id="route1.13" type="v1" depart="89.82" departLane="0" color="yellow">
        <route edges="D1"/>
    </vehicle>
    <vehicle id="route3.13" type="v1" depart="89.82" departLane="2" color="yellow">
        <route edges="D1"/>
    </vehicle>
    <vehicle id="route2.14" type="v1" depart="96.54" departLane="1" color="yellow">
        <route edges="D1"/>
    </vehicle>
    <vehicle id="route1.14" type="v1" depart="96.73" departLane="0" color="yellow">
        <route edges="D1"/>
    </vehicle>
    <vehicle id="route3.14" type="v1" depart="96.73" departLane="2" color="yellow">
        <route edges="D1"/>
    </vehicle>
    <vehicle id="route2.15" type="v1" depart="103.44" departLane="1" color="yellow">
        <route edges="D1"/>
    </vehicle>
    <vehicle id="route1.15" type="v1" depart="103.64" departLane="0" color="yellow">
        <route edges="D1"/>
    </vehicle>
    <vehicle id="route3.15" type="v1" depart="103.64" departLane="2" color="yellow">
        <route edges="D1"/>
    </vehicle>
    <vehicle id="route2.16" type="v1" depart="110.34" departLane="1" color="yellow">
        <route edges="D1"/>
    </vehicle>
    <vehicle id="route1.16" type="v1" depart="110.54" departLane="0" color="yellow">
        <route edges="D1"/>
    </vehicle>
    <vehicle id="route3.16" type="v1" depart="110.54" departLane="2" color="yellow">
        <route edges="D1"/>
    </vehicle>
    <vehicle id="route2.17" type="v1" depart="117.23" departLane="1" color="yellow">
        <route edges="D1"/>
    </vehicle>
    <vehicle id="route1.17" type="v1" depart="117.45" departLane="0" color="yellow">
        <route edges="D1"/>
    </vehicle>
    <vehicle id="route3.17" type="v1" depart="117.45" departLane="2" color="yellow">
        <route edges="D1"/>
    </vehicle>
    <vehicle id="route2.18" type="v1" depart="124.13" departLane="1" color="yellow">
        <route edges="D1"/>
    </vehicle>
    <vehicle id="route1.18" type="v1" depart="124.36" departLane="0" color="yellow">
        <route edges="D1"/>
    </vehicle>
    <vehicle id="route3.18" type="v1" depart="124.36" departLane="2" color="yellow">
        <route edges="D1"/>
    </vehicle>
    <vehicle id="route2.19" type="v1" depart="131.02" departLane="1" color="yellow">
        <route edges="D1"/>
    </vehicle>
    <vehicle id="route1.19" type="v1" depart="131.27" departLane="0" color="yellow">
        <route edges="D1"/>
    </vehicle>
    <vehicle id="route3.19" type="v1" depart="131.27" departLane="2" color="yellow">
        <route edges="D1"/>
    </vehicle>
    <vehicle id="route2.20" type="v1" depart="137.92" departLane="1" color="yellow">
        <route edges="D1"/>
    </vehicle>
    <vehicle id="route1.20" type="v1" depart="138.18" departLane="0" color="yellow">
        <route edges="D1"/>
    </vehicle>
    <vehicle id="route3.20" type="v1" depart="138.18" departLane="2" color="yellow">
        <route edges="D1"/>
    </vehicle>
    <vehicle id="route2.21" type="v1" depart="144.82" departLane="1" color="yellow">
        <route edges="D1"/>
    </vehicle>
    <vehicle id="route1.21" type="v1" depart="145.09" departLane="0" color="yellow">
        <route edges="D1"/>
    </vehicle>
    <vehicle id="route3.21" type="v1" depart="145.09" departLane="2" color="yellow">
        <route edges="D1"/>
    </vehicle>
    <vehicle id="route2.22" type="v1" depart="151.71" departLane="1" color="yellow">
        <route edges="D1"/>
    </vehicle>
    <vehicle id="route1.22" type="v1" depart="152.00" departLane="0" color="yellow">
        <route edges="D1"/>
    </vehicle>
    <vehicle id="route3.22" type="v1" depart="152.00" departLane="2" color="yellow">
        <route edges="D1"/>
    </vehicle>
    <vehicle id="route2.23" type="v1" depart="158.61" departLane="1" color="yellow">
        <route edges="D1"/>
    </vehicle>
    <vehicle id="route1.23" type="v1" depart="158.91" departLane="0" color="yellow">
        <route edges="D1"/>
    </vehicle>
    <vehicle id="route3.23" type="v1" depart="158.91" departLane="2" color="yellow">
        <route edges="D1"/>
    </vehicle>
    <vehicle id="route2.24" type="v1" depart="165.50" departLane="1" color="yellow">
        <route edges="D1"/>
    </vehicle>
    <vehicle id="route1.24" type="v1" depart="165.82" departLane="0" color="yellow">
        <route edges="D1"/>
    </vehicle>
    <vehicle id="route3.24" type="v1" depart="165.82" departLane="2" color="yellow">
        <route edges="D1"/>
    </vehicle>
    <vehicle id="route2.25" type="v1" depart="172.40" departLane="1" color="yellow">
        <route edges="D1"/>
    </vehicle>
    <vehicle id="route1.25" type="v1" depart="172.72" departLane="0" color="yellow">
        <route edges="D1"/>
    </vehicle>
    <vehicle id="route3.25" type="v1" depart="172.72" departLane="2" color="yellow">
        <route edges="D1"/>
    </vehicle>
    <vehicle id="route2.26" type="v1" depart="179.30" departLane="1" color="yellow">
        <route edges="D1"/>
    </vehicle>
    <vehicle id="route1.26" type="v1" depart="179.63" departLane="0" color="yellow">
        <route edges="D1"/>
    </vehicle>
    <vehicle id="route3.26" type="v1" depart="179.63" departLane="2" color="yellow">
        <route edges="D1"/>
    </vehicle>
    <vehicle id="route2.27" type="v1" depart="186.19" departLane="1" color="yellow">
        <route edges="D1"/>
    </vehicle>
    <vehicle id="route1.27" type="v1" depart="186.54" departLane="0" color="yellow">
        <route edges="D1"/>
    </vehicle>
    <vehicle id="route3.27" type="v1" depart="186.54" departLane="2" color="yellow">
        <route edges="D1"/>
    </vehicle>
    <vehicle id="route2.28" type="v1" depart="193.09" departLane="1" color="yellow">
        <route edges="D1"/>
    </vehicle>
    <vehicle id="route1.28" type="v1" depart="193.45" departLane="0" color="yellow">
        <route edges="D1"/>
    </vehicle>
    <vehicle id="route3.28" type="v1" depart="193.45" departLane="2" color="yellow">
        <route edges="D1"/>
    </vehicle>
    <vehicle id="route2.29" type="v1" depart="199.98" departLane="1" color="yellow">
        <route edges="D1"/>
    </vehicle>
    <vehicle id="route1.29" type="v1" depart="200.36" departLane="0" color="yellow">
        <route edges="D1"/>
    </vehicle>
    <vehicle id="route3.29" type="v1" depart="200.36" departLane="2" color="yellow">
        <route edges="D1"/>
    </vehicle>
    <vehicle id="route2.30" type="v1" depart="206.88" departLane="1" color="yellow">
        <route edges="D1"/>
    </vehicle>
    <vehicle id="route1.30" type="v1" depart="207.27" departLane="0" color="yellow">
        <route edges="D1"/>
    </vehicle>
    <vehicle id="route3.30" type="v1" depart="207.27" departLane="2" color="yellow">
        <route edges="D1"/>
    </vehicle>
    <vehicle id="route2.31" type="v1" depart="213.78" departLane="1" color="yellow">
        <route edges="D1"/>
    </vehicle>
    <vehicle id="route1.31" type="v1" depart="214.18" departLane="0" color="yellow">
        <route edges="D1"/>
    </vehicle>
    <vehicle id="route3.31" type="v1" depart="214.18" departLane="2" color="yellow">
        <route edges="D1"/>
    </vehicle>
    <vehicle id="route2.32" type="v1" depart="220.67" departLane="1" color="yellow">
        <route edges="D1"/>
    </vehicle>
    <vehicle id="route1.32" type="v1" depart="221.09" departLane="0" color="yellow">
        <route edges="D1"/>
    </vehicle>
    <vehicle id="route3.32" type="v1" depart="221.09" departLane="2" color="yellow">
        <route edges="D1"/>
    </vehicle>
    <vehicle id="route2.33" type="v1" depart="227.57" departLane="1" color="yellow">
        <route edges="D1"/>
    </vehicle>
    <vehicle id="route1.33" type="v1" depart="228.00" departLane="0" color="yellow">
        <route edges="D1"/>
    </vehicle>
    <vehicle id="route3.33" type="v1" depart="228.00" departLane="2" color="yellow">
        <route edges="D1"/>
    </vehicle>
    <vehicle id="route2.34" type="v1" depart="234.46" departLane="1" color="yellow">
        <route edges="D1"/>
    </vehicle>
    <vehicle id="route1.34" type="v1" depart="234.91" departLane="0" color="yellow">
        <route edges="D1"/>
    </vehicle>
    <vehicle id="route3.34" type="v1" depart="234.91" departLane="2" color="yellow">
        <route edges="D1"/>
    </vehicle>
    <vehicle id="route2.35" type="v1" depart="241.36" departLane="1" color="yellow">
        <route edges="D1"/>
    </vehicle>
    <vehicle id="route1.35" type="v1" depart="241.82" departLane="0" color="yellow">
        <route edges="D1"/>
    </vehicle>
    <vehicle id="route3.35" type="v1" depart="241.82" departLane="2" color="yellow">
        <route edges="D1"/>
    </vehicle>
    <vehicle id="route2.36" type="v1" depart="248.26" departLane="1" color="yellow">
        <route edges="D1"/>
    </vehicle>
    <vehicle id="route1.36" type="v1" depart="248.72" departLane="0" color="yellow">
        <route edges="D1"/>
    </vehicle>
    <vehicle id="route3.36" type="v1" depart="248.72" departLane="2" color="yellow">
        <route edges="D1"/>
    </vehicle>
    <vehicle id="route2.37" type="v1" depart="255.15" departLane="1" color="yellow">
        <route edges="D1"/>
    </vehicle>
    <vehicle id="route1.37" type="v1" depart="255.63" departLane="0" color="yellow">
        <route edges="D1"/>
    </vehicle>
    <vehicle id="route3.37" type="v1" depart="255.63" departLane="2" color="yellow">
        <route edges="D1"/>
    </vehicle>
    <vehicle id="route2.38" type="v1" depart="262.05" departLane="1" color="yellow">
        <route edges="D1"/>
    </vehicle>
    <vehicle id="route1.38" type="v1" depart="262.54" departLane="0" color="yellow">
        <route edges="D1"/>
    </vehicle>
    <vehicle id="route3.38" type="v1" depart="262.54" departLane="2" color="yellow">
        <route edges="D1"/>
    </vehicle>
    <vehicle id="route2.39" type="v1" depart="268.94" departLane="1" color="yellow">
        <route edges="D1"/>
    </vehicle>
    <vehicle id="route1.39" type="v1" depart="269.45" departLane="0" color="yellow">
        <route edges="D1"/>
    </vehicle>
    <vehicle id="route3.39" type="v1" depart="269.45" departLane="2" color="yellow">
        <route edges="D1"/>
    </vehicle>
    <vehicle id="route2.40" type="v1" depart="275.84" departLane="1" color="yellow">
        <route edges="D1"/>
    </vehicle>
    <vehicle id="route1.40" type="v1" depart="276.36" departLane="0" color="yellow">
        <route edges="D1"/>
    </vehicle>
    <vehicle id="route3.40" type="v1" depart="276.36" departLane="2" color="yellow">
        <route edges="D1"/>
    </vehicle>
    <vehicle id="route2.41" type="v1" depart="282.74" departLane="1" color="yellow">
        <route edges="D1"/>
    </vehicle>
    <vehicle id="route1.41" type="v1" depart="283.27" departLane="0" color="yellow">
        <route edges="D1"/>
    </vehicle>
    <vehicle id="route3.41" type="v1" depart="283.27" departLane="2" color="yellow">
        <route edges="D1"/>
    </vehicle>
    <vehicle id="route2.42" type="v1" depart="289.63" departLane="1" color="yellow">
        <route edges="D1"/>
    </vehicle>
    <vehicle id="route1.42" type="v1" depart="290.18" departLane="0" color="yellow">
        <route edges="D1"/>
    </vehicle>
    <vehicle id="route3.42" type="v1" depart="290.18" departLane="2" color="yellow">
        <route edges="D1"/>
    </vehicle>
    <vehicle id="route2.43" type="v1" depart="296.53" departLane="1" color="yellow">
        <route edges="D1"/>
    </vehicle>
    <vehicle id="route1.43" type="v1" depart="297.09" departLane="0" color="yellow">
        <route edges="D1"/>
    </vehicle>
    <vehicle id="route3.43" type="v1" depart="297.09" departLane="2" color="yellow">
        <route edges="D1"/>
    </vehicle>
    <vehicle id="route2.44" type="v1" depart="303.42" departLane="1" color="yellow">
        <route edges="D1"/>
    </vehicle>
    <vehicle id="route1.44" type="v1" depart="304.00" departLane="0" color="yellow">
        <route edges="D1"/>
    </vehicle>
    <vehicle id="route3.44" type="v1" depart="304.00" departLane="2" color="yellow">
        <route edges="D1"/>
    </vehicle>
    <vehicle id="route2.45" type="v1" depart="310.32" departLane="1" color="yellow">
        <route edges="D1"/>
    </vehicle>
    <vehicle id="route1.45" type="v1" depart="310.90" departLane="0" color="yellow">
        <route edges="D1"/>
    </vehicle>
    <vehicle id="route3.45" type="v1" depart="310.90" departLane="2" color="yellow">
        <route edges="D1"/>
    </vehicle>
    <vehicle id="route2.46" type="v1" depart="317.22" departLane="1" color="yellow">
        <route edges="D1"/>
    </vehicle>
    <vehicle id="route1.46" type="v1" depart="317.81" departLane="0" color="yellow">
        <route edges="D1"/>
    </vehicle>
    <vehicle id="route3.46" type="v1" depart="317.81" departLane="2" color="yellow">
        <route edges="D1"/>
    </vehicle>
    <vehicle id="route2.47" type="v1" depart="324.11" departLane="1" color="yellow">
        <route edges="D1"/>
    </vehicle>
    <vehicle id="route1.47" type="v1" depart="324.72" departLane="0" color="yellow">
        <route edges="D1"/>
    </vehicle>
    <vehicle id="route3.47" type="v1" depart="324.72" departLane="2" color="yellow">
        <route edges="D1"/>
    </vehicle>
    <vehicle id="route2.48" type="v1" depart="331.01" departLane="1" color="yellow">
        <route edges="D1"/>
    </vehicle>
    <vehicle id="route1.48" type="v1" depart="331.63" departLane="0" color="yellow">
        <route edges="D1"/>
    </vehicle>
    <vehicle id="route3.48" type="v1" depart="331.63" departLane="2" color="yellow">
        <route edges="D1"/>
    </vehicle>
    <vehicle id="route2.49" type="v1" depart="337.90" departLane="1" color="yellow">
        <route edges="D1"/>
    </vehicle>
    <vehicle id="route1.49" type="v1" depart="338.54" departLane="0" color="yellow">
        <route edges="D1"/>
    </vehicle>
    <vehicle id="route3.49" type="v1" depart="338.54" departLane="2" color="yellow">
        <route edges="D1"/>
    </vehicle>
    <vehicle id="route2.50" type="v1" depart="344.80" departLane="1" color="yellow">
        <route edges="D1"/>
    </vehicle>
    <vehicle id="route1.50" type="v1" depart="345.45" departLane="0" color="yellow">
        <route edges="D1"/>
    </vehicle>
    <vehicle id="route3.50" type="v1" depart="345.45" departLane="2" color="yellow">
        <route edges="D1"/>
    </vehicle>
    <vehicle id="route2.51" type="v1" depart="351.70" departLane="1" color="yellow">
        <route edges="D1"/>
    </vehicle>
    <vehicle id="route1.51" type="v1" depart="352.36" departLane="0" color="yellow">
        <route edges="D1"/>
    </vehicle>
    <vehicle id="route3.51" type="v1" depart="352.36" departLane="2" color="yellow">
        <route edges="D1"/>
    </vehicle>
    <vehicle id="route2.52" type="v1" depart="358.59" departLane="1" color="yellow">
        <route edges="D1"/>
    </vehicle>
    <vehicle id="route1.52" type="v1" depart="359.27" departLane="0" color="yellow">
        <route edges="D1"/>
    </vehicle>
    <vehicle id="route3.52" type="v1" depart="359.27" departLane="2" color="yellow">
        <route edges="D1"/>
    </vehicle>
    <vehicle id="route2.53" type="v1" depart="365.49" departLane="1" color="yellow">
        <route edges="D1"/>
    </vehicle>
    <vehicle id="route1.53" type="v1" depart="366.18" departLane="0" color="yellow">
        <route edges="D1"/>
    </vehicle>
    <vehicle id="route3.53" type="v1" depart="366.18" departLane="2" color="yellow">
        <route edges="D1"/>
    </vehicle>
    <vehicle id="route2.54" type="v1" depart="372.38" departLane="1" color="yellow">
        <route edges="D1"/>
    </vehicle>
    <vehicle id="route1.54" type="v1" depart="373.09" departLane="0" color="yellow">
        <route edges="D1"/>
    </vehicle>
    <vehicle id="route3.54" type="v1" depart="373.09" departLane="2" color="yellow">
        <route edges="D1"/>
    </vehicle>
    <vehicle id="route2.55" type="v1" depart="379.28" departLane="1" color="yellow">
        <route edges="D1"/>
    </vehicle>
    <vehicle id="route1.55" type="v1" depart="380.00" departLane="0" color="yellow">
        <route edges="D1"/>
    </vehicle>
    <vehicle id="route3.55" type="v1" depart="380.00" departLane="2" color="yellow">
        <route edges="D1"/>
    </vehicle>
    <vehicle id="route2.56" type="v1" depart="386.18" departLane="1" color="yellow">
        <route edges="D1"/>
    </vehicle>
    <vehicle id="route1.56" type="v1" depart="386.90" departLane="0" color="yellow">
        <route edges="D1"/>
    </vehicle>
    <vehicle id="route3.56" type="v1" depart="386.90" departLane="2" color="yellow">
        <route edges="D1"/>
    </vehicle>
    <vehicle id="route2.57" type="v1" depart="393.07" departLane="1" color="yellow">
        <route edges="D1"/>
    </vehicle>
    <vehicle id="route1.57" type="v1" depart="393.81" departLane="0" color="yellow">
        <route edges="D1"/>
    </vehicle>
    <vehicle id="route3.57" type="v1" depart="393.81" departLane="2" color="yellow">
        <route edges="D1"/>
    </vehicle>
    <vehicle id="route2.58" type="v1" depart="399.97" departLane="1" color="yellow">
        <route edges="D1"/>
    </vehicle>
    <vehicle id="route1.58" type="v1" depart="400.72" departLane="0" color="yellow">
        <route edges="D1"/>
    </vehicle>
    <vehicle id="route3.58" type="v1" depart="400.72" departLane="2" color="yellow">
        <route edges="D1"/>
    </vehicle>
    <vehicle id="route2.59" type="v1" depart="406.86" departLane="1" color="yellow">
        <route edges="D1"/>
    </vehicle>
    <vehicle id="route1.59" type="v1" depart="407.63" departLane="0" color="yellow">
        <route edges="D1"/>
    </vehicle>
    <vehicle id="route3.59" type="v1" depart="407.63" departLane="2" color="yellow">
        <route edges="D1"/>
    </vehicle>
    <vehicle id="route2.60" type="v1" depart="413.76" departLane="1" color="yellow">
        <route edges="D1"/>
    </vehicle>
    <vehicle id="route1.60" type="v1" depart="414.54" departLane="0" color="yellow">
        <route edges="D1"/>
    </vehicle>
    <vehicle id="route3.60" type="v1" depart="414.54" departLane="2" color="yellow">
        <route edges="D1"/>
    </vehicle>
    <vehicle id="route2.61" type="v1" depart="420.66" departLane="1" color="yellow">
        <route edges="D1"/>
    </vehicle>
    <vehicle id="route1.61" type="v1" depart="421.45" departLane="0" color="yellow">
        <route edges="D1"/>
    </vehicle>
    <vehicle id="route3.61" type="v1" depart="421.45" departLane="2" color="yellow">
        <route edges="D1"/>
    </vehicle>
    <vehicle id="route2.62" type="v1" depart="427.55" departLane="1" color="yellow">
        <route edges="D1"/>
    </vehicle>
    <vehicle id="route1.62" type="v1" depart="428.36" departLane="0" color="yellow">
        <route edges="D1"/>
    </vehicle>
    <vehicle id="route3.62" type="v1" depart="428.36" departLane="2" color="yellow">
        <route edges="D1"/>
    </vehicle>
    <vehicle id="route2.63" type="v1" depart="434.45" departLane="1" color="yellow">
        <route edges="D1"/>
    </vehicle>
    <vehicle id="route1.63" type="v1" depart="435.27" departLane="0" color="yellow">
        <route edges="D1"/>
    </vehicle>
    <vehicle id="route3.63" type="v1" depart="435.27" departLane="2" color="yellow">
        <route edges="D1"/>
    </vehicle>
    <vehicle id="route2.64" type="v1" depart="441.34" departLane="1" color="yellow">
        <route edges="D1"/>
    </vehicle>
    <vehicle id="route1.64" type="v1" depart="442.18" departLane="0" color="yellow">
        <route edges="D1"/>
    </vehicle>
    <vehicle id="route3.64" type="v1" depart="442.18" departLane="2" color="yellow">
        <route edges="D1"/>
    </vehicle>
    <vehicle id="route2.65" type="v1" depart="448.24" departLane="1" color="yellow">
        <route edges="D1"/>
    </vehicle>
    <vehicle id="route1.65" type="v1" depart="449.08" departLane="0" color="yellow">
        <route edges="D1"/>
    </vehicle>
    <vehicle id="route3.65" type="v1" depart="449.08" departLane="2" color="yellow">
        <route edges="D1"/>
    </vehicle>
    <vehicle id="route2.66" type="v1" depart="455.14" departLane="1" color="yellow">
        <route edges="D1"/>
    </vehicle>
    <vehicle id="route1.66" type="v1" depart="455.99" departLane="0" color="yellow">
        <route edges="D1"/>
    </vehicle>
    <vehicle id="route3.66" type="v1" depart="455.99" departLane="2" color="yellow">
        <route edges="D1"/>
    </vehicle>
    <vehicle id="route2.67" type="v1" depart="462.03" departLane="1" color="yellow">
        <route edges="D1"/>
    </vehicle>
    <vehicle id="route1.67" type="v1" depart="462.90" departLane="0" color="yellow">
        <route edges="D1"/>
    </vehicle>
    <vehicle id="route3.67" type="v1" depart="462.90" departLane="2" color="yellow">
        <route edges="D1"/>
    </vehicle>
    <vehicle id="route2.68" type="v1" depart="468.93" departLane="1" color="yellow">
        <route edges="D1"/>
    </vehicle>
    <vehicle id="route1.68" type="v1" depart="469.81" departLane="0" color="yellow">
        <route edges="D1"/>
    </vehicle>
    <vehicle id="route3.68" type="v1" depart="469.81" departLane="2" color="yellow">
        <route edges="D1"/>
    </vehicle>
    <vehicle id="route2.69" type="v1" depart="475.82" departLane="1" color="yellow">
        <route edges="D1"/>
    </vehicle>
    <vehicle id="route1.69" type="v1" depart="476.72" departLane="0" color="yellow">
        <route edges="D1"/>
    </vehicle>
    <vehicle id="route3.69" type="v1" depart="476.72" departLane="2" color="yellow">
        <route edges="D1"/>
    </vehicle>
    <vehicle id="route2.70" type="v1" depart="482.72" departLane="1" color="yellow">
        <route edges="D1"/>
    </vehicle>
    <vehicle id="route1.70" type="v1" depart="483.63" departLane="0" color="yellow">
        <route edges="D1"/>
    </vehicle>
    <vehicle id="route3.70" type="v1" depart="483.63" departLane="2" color="yellow">
        <route edges="D1"/>
    </vehicle>
    <vehicle id="route2.71" type="v1" depart="489.62" departLane="1" color="yellow">
        <route edges="D1"/>
    </vehicle>
    <vehicle id="route1.71" type="v1" depart="490.54" departLane="0" color="yellow">
        <route edges="D1"/>
    </vehicle>
    <vehicle id="route3.71" type="v1" depart="490.54" departLane="2" color="yellow">
        <route edges="D1"/>
    </vehicle>
    <vehicle id="route2.72" type="v1" depart="496.51" departLane="1" color="yellow">
        <route edges="D1"/>
    </vehicle>
    <vehicle id="route1.72" type="v1" depart="497.45" departLane="0" color="yellow">
        <route edges="D1"/>
    </vehicle>
    <vehicle id="route3.72" type="v1" depart="497.45" departLane="2" color="yellow">
        <route edges="D1"/>
    </vehicle>
    <vehicle id="route2.73" type="v1" depart="503.41" departLane="1" color="yellow">
        <route edges="D1"/>
    </vehicle>
    <vehicle id="route1.73" type="v1" depart="504.36" departLane="0" color="yellow">
        <route edges="D1"/>
    </vehicle>
    <vehicle id="route3.73" type="v1" depart="504.36" departLane="2" color="yellow">
        <route edges="D1"/>
    </vehicle>
    <vehicle id="route2.74" type="v1" depart="510.30" departLane="1" color="yellow">
        <route edges="D1"/>
    </vehicle>
    <vehicle id="route1.74" type="v1" depart="511.27" departLane="0" color="yellow">
        <route edges="D1"/>
    </vehicle>
    <vehicle id="route3.74" type="v1" depart="511.27" departLane="2" color="yellow">
        <route edges="D1"/>
    </vehicle>
    <vehicle id="route2.75" type="v1" depart="517.20" departLane="1" color="yellow">
        <route edges="D1"/>
    </vehicle>
    <vehicle id="route1.75" type="v1" depart="518.17" departLane="0" color="yellow">
        <route edges="D1"/>
    </vehicle>
    <vehicle id="route3.75" type="v1" depart="518.17" departLane="2" color="yellow">
        <route edges="D1"/>
    </vehicle>
    <vehicle id="route2.76" type="v1" depart="524.10" departLane="1" color="yellow">
        <route edges="D1"/>
    </vehicle>
    <vehicle id="route1.76" type="v1" depart="525.08" departLane="0" color="yellow">
        <route edges="D1"/>
    </vehicle>