<?xml version="1.0" encoding="UTF-8"?>

<!-- generated on 12/11/21 18:23:30 by Eclipse SUMO duarouter Version 1.2.0
<configuration xmlns:xsi="http://www.w3.org/2001/XMLSchema-instance">

    <input>
        <net-file value="1.net.xml"/>
        <route-files value="250.flow.xml"/>
    </input>

    <output>
        <output-file value="250.rou.xml"/>
        <alternatives-output value="250.rou.alt.xml"/>
    </output>

</configuration>
-->

<routes xmlns:xsi="http://www.w3.org/2001/XMLSchema-instance">
    <vType id="v1"/>
    <vehicle id="route1.0" type="v1" depart="0.00" departLane="0" color="yellow">
        <route edges="D1"/>
    </vehicle>
    <vehicle id="route2.0" type="v1" depart="0.00" departLane="1" color="yellow">
        <route edges="D1"/>
    </vehicle>
    <vehicle id="route3.0" type="v1" depart="0.00" departLane="2" color="yellow">
        <route edges="D1"/>
    </vehicle>
    <vehicle id="route2.1" type="v1" depart="42.86" departLane="1" color="yellow">
        <route edges="D1"/>
    </vehicle>
    <vehicle id="route1.1" type="v1" depart="43.37" departLane="0" color="yellow">
        <route edges="D1"/>
    </vehicle>
    <vehicle id="route3.1" type="v1" depart="43.37" departLane="2" color="yellow">
        <route edges="D1"/>
    </vehicle>
    <vehicle id="route2.2" type="v1" depart="85.71" departLane="1" color="yellow">
        <route edges="D1"/>
    </vehicle>
    <vehicle id="route1.2" type="v1" depart="86.75" departLane="0" color="yellow">
        <route edges="D1"/>
    </vehicle>
    <vehicle id="route3.2" type="v1" depart="86.75" departLane="2" color="yellow">
        <route edges="D1"/>
    </vehicle>
    <vehicle id="route2.3" type="v1" depart="128.57" departLane="1" color="yellow">
        <route edges="D1"/>
    </vehicle>
    <vehicle id="route1.3" type="v1" depart="130.12" departLane="0" color="yellow">
        <route edges="D1"/>
    </vehicle>
    <vehicle id="route3.3" type="v1" depart="130.12" departLane="2" color="yellow">
        <route edges="D1"/>
    </vehicle>
    <vehicle id="route2.4" type="v1" depart="171.43" departLane="1" color="yellow">
        <route edges="D1"/>
    </vehicle>
    <vehicle id="route1.4" type="v1" depart="173.49" departLane="0" color="yellow">
        <route edges="D1"/>
    </vehicle>
    <vehicle id="route3.4" type="v1" depart="173.49" departLane="2" color="yellow">
        <route edges="D1"/>
    </vehicle>
    <vehicle id="route2.5" type="v1" depart="214.29" departLane="1" color="yellow">
        <route edges="D1"/>
    </vehicle>
    <vehicle id="route1.5" type="v1" depart="216.87" departLane="0" color="yellow">
        <route edges="D1"/>
    </vehicle>
    <vehicle id="route3.5" type="v1" depart="216.87" departLane="2" color="yellow">
        <route edges="D1"/>
    </vehicle>
    <vehicle id="route2.6" type="v1" depart="257.14" departLane="1" color="yellow">
        <route edges="D1"/>
    </vehicle>
    <vehicle id="route1.6" type="v1" depart="260.24" departLane="0" color="yellow">
        <route edges="D1"/>
    </vehicle>
    <vehicle id="route3.6" type="v1" depart="260.24" departLane="2" color="yellow">
        <route edges="D1"/>
    </vehicle>
    <vehicle id="route2.7" type="v1" depart="300.00" departLane="1" color="yellow">
        <route edges="D1"/>
    </vehicle>
    <vehicle id="route1.7" type="v1" depart="303.61" departLane="0" color="yellow">
        <route edges="D1"/>
    </vehicle>
    <vehicle id="route3.7" type="v1" depart="303.61" departLane="2" color="yellow">
        <route edges="D1"/>
    </vehicle>
    <vehicle id="route2.8" type="v1" depart="342.86" departLane="1" color="yellow">
        <route edges="D1"/>
    </vehicle>
    <vehicle id="route1.8" type="v1" depart="346.98" departLane="0" color="yellow">
        <route edges="D1"/>
    </vehicle>
    <vehicle id="route3.8" type="v1" depart="346.98" departLane="2" color="yellow">
        <route edges="D1"/>
    </vehicle>
    <vehicle id="route2.9" type="v1" depart="385.71" departLane="1" color="yellow">
        <route edges="D1"/>
    </vehicle>
    <vehicle id="route1.9" type="v1" depart="390.36" departLane="0" color="yellow">
        <route edges="D1"/>
    </vehicle>
    <vehicle id="route3.9" type="v1" depart="390.36" departLane="2" color="yellow">
        <route edges="D1"/>
    </vehicle>
    <vehicle id="route2.10" type="v1" depart="428.57" departLane="1" color="yellow">
        <route edges="D1"/>
    </vehicle>
    <vehicle id="route1.10" type="v1" depart="433.73" departLane="0" color="yellow">
        <route edges="D1"/>
    </vehicle>
    <vehicle id="route3.10" type="v1" depart="433.73" departLane="2" color="yellow">
        <route edges="D1"/>
    </vehicle>
    <vehicle id="route2.11" type="v1" depart="471.43" departLane="1" color="yellow">
        <route edges="D1"/>
    </vehicle>
    <vehicle id="route1.11" type="v1" depart="477.10" departLane="0" color="yellow">
        <route edges="D1"/>
    </vehicle>
    <vehicle id="route3.11" type="v1" depart="477.10" departLane="2" color="yellow">
        <route edges="D1"/>
    </vehicle>
    <vehicle id="route2.12" type="v1" depart="514.28" departLane="1" color="yellow">
        <route edges="D1"/>
    </vehicle>
    <vehicle id="route1.12" type="v1" depart="520.48" departLane="0" color="yellow">
        <route edges="D1"/>
    </vehicle>
    <vehicle id="route3.12" type="v1" depart="520.48" departLane="2" color="yellow">
        <route edges="D1"/>
    </vehicle>
    <vehicle id="route2.13" type="v1" depart="557.14" departLane="1" color="yellow">
        <route edges="D1"/>
    </vehicle>
    <vehicle id="route1.13" type="v1" depart="563.85" departLane="0" color="yellow">
        <route edges="D1"/>
    </vehicle>
    <vehicle id="route3.13" type="v1" depart="563.85" departLane="2" color="yellow">
        <route edges="D1"/>
    </vehicle>
    <vehicle id="route2.14" type="v1" depart="600.00" departLane="1" color="yellow">
        <route edges="D1"/>
    </vehicle>
    <vehicle id="route1.14" type="v1" depart="607.22" departLane="0" color="yellow">
        <route edges="D1"/>
    </vehicle>
    <vehicle id="route3.14" type="v1" depart="607.22" departLane="2" color="yellow">
        <route edges="D1"/>
    </vehicle>
    <vehicle id="route2.15" type="v1" depart="642.86" departLane="1" color="yellow">
        <route edges="D1"/>
    </vehicle>
    <vehicle id="route1.15" type="v1" depart="650.60" departLane="0" color="yellow">
        <route edges="D1"/>
    </vehicle>
    <vehicle id="route3.15" type="v1" depart="650.60" departLane="2" color="yellow">
        <route edges="D1"/>
    </vehicle>
    <vehicle id="route2.16" type="v1" depart="685.71" departLane="1" color="yellow">
        <route edges="D1"/>
    </vehicle>
    <vehicle id="route1.16" type="v1" depart="693.97" departLane="0" color="yellow">
        <route edges="D1"/>
    </vehicle>
    <vehicle id="route3.16" type="v1" depart="693.97" departLane="2" color="yellow">
        <route edges="D1"/>
    </vehicle>
    <vehicle id="route2.17" type="v1" depart="728.57" departLane="1" color="yellow">
        <route edges="D1"/>
    </vehicle>
    <vehicle id="route1.17" type="v1" depart="737.34" departLane="0" color="yellow">
        <route edges="D1"/>
    </vehicle>
    <vehicle id="route3.17" type="v1" depart="737.34" departLane="2" color="yellow">
        <route edges="D1"/>
    </vehicle>
    <vehicle id="route2.18" type="v1" depart="771.43" departLane="1" color="yellow">
        <route edges="D1"/>
    </vehicle>
    <vehicle id="route1.18" type="v1" depart="780.71" departLane="0" color="yellow">
        <route edges="D1"/>
    </vehicle>
    <vehicle id="route3.18" type="v1" depart="780.71" departLane="2" color="yellow">
        <route edges="D1"/>
    </vehicle>
    <vehicle id="route2.19" type="v1" depart="814.28" departLane="1" color="yellow">
        <route edges="D1"/>
    </vehicle>
    <vehicle id="route1.19" type="v1" depart="824.09" departLane="0" color="yellow">
        <route edges="D1"/>
    </vehicle>
    <vehicle id="route3.19" type="v1" depart="824.09" departLane="2" color="yellow">
        <route edges="D1"/>
    </vehicle>
    <vehicle id="route2.20" type="v1" depart="857.14" departLane="1" color="yellow">
        <route edges="D1"/>
    </vehicle>
    <vehicle id="route1.20" type="v1" depart="867.46" departLane="0" color="yellow">
        <route edges="D1"/>
    </vehicle>
    <vehicle id="route3.20" type="v1" depart="867.46" departLane="2" color="yellow">
        <route edges="D1"/>
    </vehicle>
    <vehicle id="route2.21" type="v1" depart="900.00" departLane="1" color="yellow">
        <route edges="D1"/>
    </vehicle>
    <vehicle id="route1.21" type="v1" depart="910.83" departLane="0" color="yellow">
        <route edges="D1"/>
    </vehicle>
    <vehicle id="route3.21" type="v1" depart="910.83" departLane="2" color="yellow">
        <route edges="D1"/>
    </vehicle>
    <vehicle id="route2.22" type="v1" depart="942.85" departLane="1" color="yellow">
        <route edges="D1"/>
    </vehicle>
    <vehicle id="route1.22" type="v1" depart="954.21" departLane="0" color="yellow">
        <route edges="D1"/>
    </vehicle>
    <vehicle id="route3.22" type="v1" depart="954.21" departLane="2" color="yellow">
        <route edges="D1"/>
    </vehicle>
    <vehicle id="route2.23" type="v1" depart="985.71" departLane="1" color="yellow">
        <route edges="D1"/>
    </vehicle>
    <vehicle id="route1.23" type="v1" depart="997.58" departLane="0" color="yellow">
        <route edges="D1"/>
    </vehicle>
    <vehicle id="route3.23" type="v1" depart="997.58" departLane="2" color="yellow">
        <route edges="D1"/>
    </vehicle>
    <vehicle id="route2.24" type="v1" depart="1028.57" departLane="1" color="yellow">
        <route edges="D1"/>
    </vehicle>
    <vehicle id="route1.24" type="v1" depart="1040.95" departLane="0" color="yellow">
        <route edges="D1"/>
    </vehicle>
    <vehicle id="route3.24" type="v1" depart="1040.95" departLane="2" color="yellow">
        <route edges="D1"/>
    </vehicle>
    <vehicle id="route2.25" type="v1" depart="1071.43" departLane="1" color="yellow">
        <route edges="D1"/>
    </vehicle>
    <vehicle id="route1.25" type="v1" depart="1084.33" departLane="0" color="yellow">
        <route edges="D1"/>
    </vehicle>
    <vehicle id="route3.25" type="v1" depart="1084.33" departLane="2" color="yellow">
        <route edges="D1"/>
    </vehicle>
    <vehicle id="route2.26" type="v1" depart="1114.28" departLane="1" color="yellow">
        <route edges="D1"/>
    </vehicle>
    <vehicle id="route1.26" type="v1" depart="1127.70" departLane="0" color="yellow">
        <route edges="D1"/>
    </vehicle>
    <vehicle id="route3.26" type="v1" depart="1127.70" departLane="2" color="yellow">
        <route edges="D1"/>
    </vehicle>
    <vehicle id="route2.27" type="v1" depart="1157.14" departLane="1" color="yellow">
        <route edges="D1"/>
    </vehicle>
    <vehicle id="route1.27" type="v1" depart="1171.07" departLane="0" color="yellow">
        <route edges="D1"/>
    </vehicle>
    <vehicle id="route3.27" type="v1" depart="1171.07" departLane="2" color="yellow">
        <route edges="D1"/>
    </vehicle>
    <vehicle id="route2.28" type="v1" depart="1200.00" departLane="1" color="yellow">
        <route edges="D1"/>
    </vehicle>
    <vehicle id="route1.28" type="v1" depart="1214.44" departLane="0" color="yellow">
        <route edges="D1"/>
    </vehicle>
    <vehicle id="route3.28" type="v1" depart="1214.44" departLane="2" color="yellow">
        <route edges="D1"/>
    </vehicle>
    <vehicle id="route2.29" type="v1" depart="1242.85" departLane="1" color="yellow">
        <route edges="D1"/>
    </vehicle>
    <vehicle id="route1.29" type="v1" depart="1257.82" departLane="0" color="yellow">
        <route edges="D1"/>
    </vehicle>
    <vehicle id="route3.29" type="v1" depart="1257.82" departLane="2" color="yellow">
        <route edges="D1"/>
    </vehicle>
    <vehicle id="route2.30" type="v1" depart="1285.71" departLane="1" color="yellow">
        <route edges="D1"/>
    </vehicle>
    <vehicle id="route1.30" type="v1" depart="1301.19" departLane="0" color="yellow">
        <route edges="D1"/>
    </vehicle>
    <vehicle id="route3.30" type="v1" depart="1301.19" departLane="2" color="yellow">
        <route edges="D1"/>
    </vehicle>
    <vehicle id="route2.31" type="v1" depart="1328.57" departLane="1" color="yellow">
        <route edges="D1"/>
    </vehicle>
    <vehicle id="route1.31" type="v1" depart="1344.56" departLane="0" color="yellow">
        <route edges="D1"/>
    </vehicle>
    <vehicle id="route3.31" type="v1" depart="1344.56" departLane="2" color="yellow">
        <route edges="D1"/>
    </vehicle>
    <vehicle id="route2.32" type="v1" depart="1371.42" departLane="1" color="yellow">
        <route edges="D1"/>
    </vehicle>
    <vehicle id="route1.32" type="v1" depart="1387.94" departLane="0" color="yellow">
        <route edges="D1"/>
    </vehicle>
    <vehicle id="route3.32" type="v1" depart="1387.94" departLane="2" color="yellow">
        <route edges="D1"/>
    </vehicle>
    <vehicle id="route2.33" type="v1" depart="1414.28" departLane="1" color="yellow">
        <route edges="D1"/>
    </vehicle>
    <vehicle id="route1.33" type="v1" depart="1431.31" departLane="0" color="yellow">
        <route edges="D1"/>
    </vehicle>
    <vehicle id="route3.33" type="v1" depart="1431.31" departLane="2" color="yellow">
        <route edges="D1"/>
    </vehicle>
    <vehicle id="route2.34" type="v1" depart="1457.14" departLane="1" color="yellow">
        <route edges="D1"/>
    </vehicle>
    <vehicle id="route1.34" type="v1" depart="1474.68" departLane="0" color="yellow">
        <route edges="D1"/>
    </vehicle>
    <vehicle id="route3.34" type="v1" depart="1474.68" departLane="2" color="yellow">
        <route edges="D1"/>
    </vehicle>
    <vehicle id="route2.35" type="v1" depart="1499.99" departLane="1" color="yellow">
        <route edges="D1"/>
    </vehicle>
    <vehicle id="route1.35" type="v1" depart="1518.06" departLane="0" color="yellow">
        <route edges="D1"/>
    </vehicle>
    <vehicle id="route3.35" type="v1" depart="1518.06" departLane="2" color="yellow">
        <route edges="D1"/>
    </vehicle>
    <vehicle id="route2.36" type="v1" depart="1542.85" departLane="1" color="yellow">
        <route edges="D1"/>
    </vehicle>
    <vehicle id="route1.36" type="v1" depart="1561.43" departLane="0" color="yellow">
        <route edges="D1"/>
    </vehicle>
    <vehicle id="route3.36" type="v1" depart="1561.43" departLane="2" color="yellow">
        <route edges="D1"/>
    </vehicle>
    <vehicle id="route2.37" type="v1" depart="1585.71" departLane="1" color="yellow">
        <route edges="D1"/>
    </vehicle>
    <vehicle id="route1.37" type="v1" depart="1604.80" departLane="0" color="yellow">
        <route edges="D1"/>
    </vehicle>
    <vehicle id="route3.37" type="v1" depart="1604.80" departLane="2" color="yellow">
        <route edges="D1"/>
    </vehicle>
    <vehicle id="route2.38" type="v1" depart="1628.57" departLane="1" color="yellow">
        <route edges="D1"/>
    </vehicle>
    <vehicle id="route1.38" type="v1" depart="1648.17" departLane="0" color="yellow">
        <route edges="D1"/>
    </vehicle>
    <vehicle id="route3.38" type="v1" depart="1648.17" departLane="2" color="yellow">
        <route edges="D1"/>
    </vehicle>
    <vehicle id="route2.39" type="v1" depart="1671.42" departLane="1" color="yellow">
        <route edges="D1"/>
    </vehicle>
    <vehicle id="route1.39" type="v1" depart="1691.55" departLane="0" color="yellow">
        <route edges="D1"/>
    </vehicle>
    <vehicle id="route3.39" type="v1" depart="1691.55" departLane="2" color="yellow">
        <route edges="D1"/>
    </vehicle>
    <vehicle id="route2.40" type="v1" depart="1714.28" departLane="1" color="yellow">
        <route edges="D1"/>
    </vehicle>
    <vehicle id="route1.40" type="v1" depart="1734.92" departLane="0" color="yellow">
        <route edges="D1"/>
    </vehicle>
    <vehicle id="route3.40" type="v1" depart="1734.92" departLane="2" color="yellow">
        <route edges="D1"/>
    </vehicle>
    <vehicle id="route2.41" type="v1" depart="1757.14" departLane="1" color="yellow">
        <route edges="D1"/>
    </vehicle>
    <vehicle id="route1.41" type="v1" depart="1778.29" departLane="0" color="yellow">
        <route edges="D1"/>
    </vehicle>
    <vehicle id="route3.41" type="v1" depart="1778.29" departLane="2" color="yellow">
        <route edges="D1"/>
    </vehicle>
    <vehicle id="route2.42" type="v1" depart="1799.99" departLane="1" color="yellow">
        <route edges="D1"/>
    </vehicle>
    <vehicle id="route1.42" type="v1" depart="1821.67" departLane="0" color="yellow">
        <route edges="D1"/>
    </vehicle>
    <vehicle id="route3.42" type="v1" depart="1821.67" departLane="2" color="yellow">
        <route edges="D1"/>
    </vehicle>
    <vehicle id="route2.43" type="v1" depart="1842.85" departLane="1" color="yellow">
        <route edges="D1"/>
    </vehicle>
    <vehicle id="route1.43" type="v1" depart="1865.04" departLane="0" color="yellow">
        <route edges="D1"/>
    </vehicle>
    <vehicle id="route3.43" type="v1" depart="1865.04" departLane="2" color="yellow">
        <route edges="D1"/>
    </vehicle>
    <vehicle id="route2.44" type="v1" depart="1885.71" departLane="1" color="yellow">
        <route edges="D1"/>
    </vehicle>
    <vehicle id="route1.44" type="v1" depart="1908.41" departLane="0" color="yellow">
        <route edges="D1"/>
    </vehicle>
    <vehicle id="route3.44" type="v1" depart="1908.41" departLane="2" color="yellow">
        <route edges="D1"/>
    </vehicle>
    <vehicle id="route2.45" type="v1" depart="1928.57" departLane="1" color="yellow">
        <route edges="D1"/>
    </vehicle>
    <vehicle id="route1.45" type="v1" depart="1951.79" departLane="0" color="yellow">
        <route edges="D1"/>
    </vehicle>
    <vehicle id="route3.45" type="v1" depart="1951.79" departLane="2" color="yellow">
        <route edges="D1"/>
    </vehicle>
    <vehicle id="route2.46" type="v1" depart="1971.42" departLane="1" color="yellow">
        <route edges="D1"/>
    </vehicle>
    <vehicle id="route1.46" type="v1" depart="1995.16" departLane="0" color="yellow">
        <route edges="D1"/>
    </vehicle>
    <vehicle id="route3.46" type="v1" depart="1995.16" departLane="2" color="yellow">
        <route edges="D1"/>
    </vehicle>
    <vehicle id="route2.47" type="v1" depart="2014.28" departLane="1" color="yellow">
        <route edges="D1"/>
    </vehicle>
    <vehicle id="route1.47" type="v1" depart="2038.53" departLane="0" color="yellow">
        <route edges="D1"/>
    </vehicle>
    <vehicle id="route3.47" type="v1" depart="2038.53" departLane="2" color="yellow">
        <route edges="D1"/>
    </vehicle>
    <vehicle id="route2.48" type="v1" depart="2057.14" departLane="1" color="yellow">
        <route edges="D1"/>
    </vehicle>
    <vehicle id="route1.48" type="v1" depart="2081.90" departLane="0" color="yellow">
        <route edges="D1"/>
    </vehicle>
    <vehicle id="route3.48" type="v1" depart="2081.90" departLane="2" color="yellow">
        <route edges="D1"/>
    </vehicle>
    <vehicle id="route2.49" type="v1" depart="2099.99" departLane="1" color="yellow">
        <route edges="D1"/>
    </vehicle>
    <vehicle id="route1.49" type="v1" depart="2125.28" departLane="0" color="yellow">
        <route edges="D1"/>
    </vehicle>
    <vehicle id="route3.49" type="v1" depart="2125.28" departLane="2" color="yellow">
        <route edges="D1"/>
    </vehicle>
    <vehicle id="route2.50" type="v1" depart="2142.85" departLane="1" color="yellow">
        <route edges="D1"/>
    </vehicle>
    <vehicle id="route1.50" type="v1" depart="2168.65" departLane="0" color="yellow">
        <route edges="D1"/>
    </vehicle>
    <vehicle id="route3.50" type="v1" depart="2168.65" departLane="2" color="yellow">
        <route edges="D1"/>
    </vehicle>
    <vehicle id="route2.51" type="v1" depart="2185.71" departLane="1" color="yellow">
        <route edges="D1"/>
    </vehicle>
    <vehicle id="route1.51" type="v1" depart="2212.02" departLane="0" color="yellow">
        <route edges="D1"/>
    </vehicle>
    <vehicle id="route3.51" type="v1" depart="2212.02" departLane="2" color="yellow">
        <route edges="D1"/>
    </vehicle>
    <vehicle id="route2.52" type="v1" depart="2228.56" departLane="1" color="yellow">
        <route edges="D1"/>
    </vehicle>
    <vehicle id="route1.52" type="v1" depart="2255.40" departLane="0" color="yellow">
        <route edges="D1"/>
    </vehicle>
    <vehicle id="route3.52" type="v1" depart="2255.40" departLane="2" color="yellow">
        <route edges="D1"/>
    </vehicle>
    <vehicle id="route2.53" type="v1" depart="2271.42" departLane="1" color="yellow">
        <route edges="D1"/>
    </vehicle>
    <vehicle id="route1.53" type="v1" depart="2298.77" departLane="0" color="yellow">
        <route edges="D1"/>
    </vehicle>
    <vehicle id="route3.53" type="v1" depart="2298.77" departLane="2" color="yellow">
        <route edges="D1"/>
    </vehicle>
    <vehicle id="route2.54" type="v1" depart="2314.28" departLane="1" color="yellow">
        <route edges="D1"/>
    </vehicle>
    <vehicle id="route1.54" type="v1" depart="2342.14" departLane="0" color="yellow">
        <route edges="D1"/>
    </vehicle>
    <vehicle id="route3.54" type="v1" depart="2342.14" departLane="2" color="yellow">
        <route edges="D1"/>
    </vehicle>
    <vehicle id="route2.55" type="v1" depart="2357.14" departLane="1" color="yellow">
        <route edges="D1"/>
    </vehicle>
    <vehicle id="route1.55" type="v1" depart="2385.51" departLane="0" color="yellow">
        <route edges="D1"/>
    </vehicle>
    <vehicle id="route3.55" type="v1" depart="2385.51" departLane="2" color="yellow">
        <route edges="D1"/>
    </vehicle>
    <vehicle id="route2.56" type="v1" depart="2399.99" departLane="1" color="yellow">
        <route edges="D1"/>
    </vehicle>
    <vehicle id="route1.56" type="v1" depart="2428.89" departLane="0" color="yellow">
        <route edges="D1"/>
    </vehicle>
    <vehicle id="route3.56" type="v1" depart="2428.89" departLane="2" color="yellow">
        <route edges="D1"/>
    </vehicle>
    <vehicle id="route2.57" type="v1" depart="2442.85" departLane="1" color="yellow">
        <route edges="D1"/>
    </vehicle>
    <vehicle id="route1.57" type="v1" depart="2472.26" departLane="0" color="yellow">
        <route edges="D1"/>
    </vehicle>
    <vehicle id="route3.57" type="v1" depart="2472.26" departLane="2" color="yellow">
        <route edges="D1"/>
    </vehicle>
    <vehicle id="route2.58" type="v1" depart="2485.71" departLane="1" color="yellow">
        <route edges="D1"/>
    </vehicle>
    <vehicle id="route1.58" type="v1" depart="2515.63" departLane="0" color="yellow">
        <route edges="D1"/>
    </vehicle>
    <vehicle id="route3.58" type="v1" depart="2515.63" departLane="2" color="yellow">
        <route edges="D1"/>
    </vehicle>
    <vehicle id="route2.59" type="v1" depart="2528.56" departLane="1" color="yellow">
        <route edges="D1"/>
    </vehicle>
    <vehicle id="route1.59" type="v1" depart="2559.01" departLane="0" color="yellow">
        <route edges="D1"/>
    </vehicle>
    <vehicle id="route3.59" type="v1" depart="2559.01" departLane="2" color="yellow">
        <route edges="D1"/>
    </vehicle>
    <vehicle id="route2.60" type="v1" depart="2571.42" departLane="1" color="yellow">
        <route edges="D1"/>
    </vehicle>
    <vehicle id="route1.60" type="v1" depart="2602.38" departLane="0" color="yellow">
        <route edges="D1"/>
    </vehicle>
    <vehicle id="route3.60" type="v1" depart="2602.38" departLane="2" color="yellow">
        <route edges="D1"/>
    </vehicle>
    <vehicle id="route2.61" type="v1" depart="2614.28" departLane="1" color="yellow">
        <route edges="D1"/>
    </vehicle>
    <vehicle id="route1.61" type="v1" depart="2645.75" departLane="0" color="yellow">
        <route edges="D1"/>
    </vehicle>
    <vehicle id="route3.61" type="v1" depart="2645.75" departLane="2" color="yellow">
        <route edges="D1"/>
    </vehicle>
    <vehicle id="route2.62" type="v1" depart="2657.13" departLane="1" color="yellow">
        <route edges="D1"/>
    </vehicle>
    <vehicle id="route1.62" type="v1" depart="2689.13" departLane="0" color="yellow">
        <route edges="D1"/>
    </vehicle>
    <vehicle id="route3.62" type="v1" depart="2689.13" departLane="2" color="yellow">
        <route edges="D1"/>
    </vehicle>
    <vehicle id="route2.63" type="v1" depart="2699.99" departLane="1" color="yellow">
        <route edges="D1"/>
    </vehicle>
    <vehicle id="route1.63" type="v1" depart="2732.50" departLane="0" color="yellow">
        <route edges="D1"/>
    </vehicle>
    <vehicle id="route3.63" type="v1" depart="2732.50" departLane="2" color="yellow">
        <route edges="D1"/>
    </vehicle>
    <vehicle id="route2.64" type="v1" depart="2742.85" departLane="1" color="yellow">
        <route edges="D1"/>
    </vehicle>
    <vehicle id="route1.64" type="v1" depart="2775.87" departLane="0" color="yellow">
        <route edges="D1"/>
    </vehicle>
    <vehicle id="route3.64" type="v1" depart="2775.87" departLane="2" color="yellow">
        <route edges="D1"/>
    </vehicle>
    <vehicle id="route2.65" type="v1" depart="2785.70" departLane="1" color="yellow">
        <route edges="D1"/>
    </vehicle>
    <vehicle id="route1.65" type="v1" depart="2819.24" departLane="0" color="yellow">
        <route edges="D1"/>
    </vehicle>
    <vehicle id="route3.65" type="v1" depart="2819.24" departLane="2" color="yellow">
        <route edges="D1"/>
    </vehicle>
    <vehicle id="route2.66" type="v1" depart="2828.56" departLane="1" color="yellow">
        <route edges="D1"/>
    </vehicle>
    <vehicle id="route1.66" type="v1" depart="2862.62" departLane="0" color="yellow">
        <route edges="D1"/>
    </vehicle>
    <vehicle id="route3.66" type="v1" depart="2862.62" departLane="2" color="yellow">
        <route edges="D1"/>
    </vehicle>
    <vehicle id="route2.67" type="v1" depart="2871.42" departLane="1" color="yellow">
        <route edges="D1"/>
    </vehicle>
    <vehicle id="route1.67" type="v1" depart="2905.99" departLane="0" color="yellow">
        <route edges="D1"/>
    </vehicle>
    <vehicle id="route3.67" type="v1" depart="2905.99" departLane="2" color="yellow">
        <route edges="D1"/>
    </vehicle>
    <vehicle id="route2.68" type="v1" depart="2914.28" departLane="1" color="yellow">
        <route edges="D1"/>
    </vehicle>
    <vehicle id="route1.68" type="v1" depart="2949.36" departLane="0" color="yellow">
        <route edges="D1"/>
    </vehicle>
    <vehicle id="route3.68" type="v1" depart="2949.36" departLane="2" color="yellow">
        <route edges="D1"/>
    </vehicle>
    <vehicle id="route2.69" type="v1" depart="2957.13" departLane="1" color="yellow">
        <route edges="D1"/>
    </vehicle>
    <vehicle id="route1.69" type="v1" depart="2992.74" departLane="0" color="yellow">
        <route edges="D1"/>
    </vehicle>
    <vehicle id="route3.69" type="v1" depart="2992.74" departLane="2" color="yellow">
        <route edges="D1"/>
    </vehicle>
    <vehicle id="route2.70" type="v1" depart="2999.99" departLane="1" color="yellow">
        <route edges="D1"/>
    </vehicle>
    <vehicle id="route1.70" type="v1" depart="3036.11" departLane="0" color="yellow">
        <route edges="D1"/>
    </vehicle>
    <vehicle id="route3.70" type="v1" depart="3036.11" departLane="2" color="yellow">
        <route edges="D1"/>
    </vehicle>
    <vehicle id="route2.71" type="v1" depart="3042.85" departLane="1" color="yellow">
        <route edges="D1"/>
    </vehicle>
    <vehicle id="route1.71" type="v1" depart="3079.48" departLane="0" color="yellow">
        <route edges="D1"/>
    </vehicle>
    <vehicle id="route3.71" type="v1" depart="3079.48" departLane="2" color="yellow">
        <route edges="D1"/>
    </vehicle>
    <vehicle id="route2.72" type="v1" depart="3085.70" departLane="1" color="yellow">
        <route edges="D1"/>
    </vehicle>
    <vehicle id="route1.72" type="v1" depart="3122.86" departLane="0" color="yellow">
        <route edges="D1"/>
    </vehicle>
    <vehicle id="route3.72" type="v1" depart="3122.86" departLane="2" color="yellow">
        <route edges="D1"/>
    </vehicle>
    <vehicle id="route2.73" type="v1" depart="3128.56" departLane="1" color="yellow">
        <route edges="D1"/>
    </vehicle>
    <vehicle id="route1.73" type="v1" depart="3166.23" departLane="0" color="yellow">
        <route edges="D1"/>
    </vehicle>
    <vehicle id="route3.73" type="v1" depart="3166.23" departLane="2" color="yellow">
        <route edges="D1"/>
    </vehicle>
    <vehicle id="route2.74" type="v1" depart="3171.42" departLane="1" color="yellow">
        <route edges="D1"/>
    </vehicle>
    <vehicle id="route1.74" type="v1" depart="3209.60" departLane="0" color="yellow">
        <route edges="D1"/>