<?xml version="1.0" encoding="UTF-8"?>

<!-- generated on 11/26/21 18:52:14 by Eclipse SUMO duarouter Version 1.2.0
<configuration xmlns:xsi="http://www.w3.org/2001/XMLSchema-instance" xsi:noNamespaceSchemaLocation="http://sumo.dlr.de/xsd/duarouterConfiguration.xsd">

    <input>
        <net-file value="1.net.xml"/>
        <route-files value="4.flow.xml"/>
    </input>

    <output>
        <output-file value="4.rou.xml"/>
        <alternatives-output value="4.rou.alt.xml"/>
    </output>

</configuration>
-->

<routes xmlns:xsi="http://www.w3.org/2001/XMLSchema-instance">
    <vType id="v1"/>
    <vehicle id="route1.0" type="v1" depart="0.00" departLane="0" color="yellow">
        <route edges="D1"/>
    </vehicle>
    <vehicle id="route2.0" type="v1" depart="0.00" departLane="1" color="yellow">
        <route edges="D1"/>
    </vehicle>
    <vehicle id="route3.0" type="v1" depart="0.00" departLane="2" color="yellow">
        <route edges="D1"/>
    </vehicle>
    <vehicle id="route2.1" type="v1" depart="5.79" departLane="1" color="yellow">
        <route edges="D1"/>
    </vehicle>
    <vehicle id="route1.1" type="v1" depart="5.80" departLane="0" color="yellow">
        <route edges="D1"/>
    </vehicle>
    <vehicle id="route3.1" type="v1" depart="5.80" departLane="2" color="yellow">
        <route edges="D1"/>
    </vehicle>
    <vehicle id="route2.2" type="v1" depart="11.57" departLane="1" color="yellow">
        <route edges="D1"/>
    </vehicle>
    <vehicle id="route1.2" type="v1" depart="11.59" departLane="0" color="yellow">
        <route edges="D1"/>
    </vehicle>
    <vehicle id="route3.2" type="v1" depart="11.59" departLane="2" color="yellow">
        <route edges="D1"/>
    </vehicle>
    <vehicle id="route2.3" type="v1" depart="17.36" departLane="1" color="yellow">
        <route edges="D1"/>
    </vehicle>
    <vehicle id="route1.3" type="v1" depart="17.39" departLane="0" color="yellow">
        <route edges="D1"/>
    </vehicle>
    <vehicle id="route3.3" type="v1" depart="17.39" departLane="2" color="yellow">
        <route edges="D1"/>
    </vehicle>
    <vehicle id="route2.4" type="v1" depart="23.15" departLane="1" color="yellow">
        <route edges="D1"/>
    </vehicle>
    <vehicle id="route1.4" type="v1" depart="23.19" departLane="0" color="yellow">
        <route edges="D1"/>
    </vehicle>
    <vehicle id="route3.4" type="v1" depart="23.19" departLane="2" color="yellow">
        <route edges="D1"/>
    </vehicle>
    <vehicle id="route2.5" type="v1" depart="28.93" departLane="1" color="yellow">
        <route edges="D1"/>
    </vehicle>
    <vehicle id="route1.5" type="v1" depart="28.98" departLane="0" color="yellow">
        <route edges="D1"/>
    </vehicle>
    <vehicle id="route3.5" type="v1" depart="28.98" departLane="2" color="yellow">
        <route edges="D1"/>
    </vehicle>
    <vehicle id="route2.6" type="v1" depart="34.72" departLane="1" color="yellow">
        <route edges="D1"/>
    </vehicle>
    <vehicle id="route1.6" type="v1" depart="34.78" departLane="0" color="yellow">
        <route edges="D1"/>
    </vehicle>
    <vehicle id="route3.6" type="v1" depart="34.78" departLane="2" color="yellow">
        <route edges="D1"/>
    </vehicle>
    <vehicle id="route2.7" type="v1" depart="40.51" departLane="1" color="yellow">
        <route edges="D1"/>
    </vehicle>
    <vehicle id="route1.7" type="v1" depart="40.58" departLane="0" color="yellow">
        <route edges="D1"/>
    </vehicle>
    <vehicle id="route3.7" type="v1" depart="40.58" departLane="2" color="yellow">
        <route edges="D1"/>
    </vehicle>
    <vehicle id="route2.8" type="v1" depart="46.30" departLane="1" color="yellow">
        <route edges="D1"/>
    </vehicle>
    <vehicle id="route1.8" type="v1" depart="46.38" departLane="0" color="yellow">
        <route edges="D1"/>
    </vehicle>
    <vehicle id="route3.8" type="v1" depart="46.38" departLane="2" color="yellow">
        <route edges="D1"/>
    </vehicle>
    <vehicle id="route2.9" type="v1" depart="52.08" departLane="1" color="yellow">
        <route edges="D1"/>
    </vehicle>
    <vehicle id="route1.9" type="v1" depart="52.17" departLane="0" color="yellow">
        <route edges="D1"/>
    </vehicle>
    <vehicle id="route3.9" type="v1" depart="52.17" departLane="2" color="yellow">
        <route edges="D1"/>
    </vehicle>
    <vehicle id="route2.10" type="v1" depart="57.87" departLane="1" color="yellow">
        <route edges="D1"/>
    </vehicle>
    <vehicle id="route1.10" type="v1" depart="57.97" departLane="0" color="yellow">
        <route edges="D1"/>
    </vehicle>
    <vehicle id="route3.10" type="v1" depart="57.97" departLane="2" color="yellow">
        <route edges="D1"/>
    </vehicle>
    <vehicle id="route2.11" type="v1" depart="63.66" departLane="1" color="yellow">
        <route edges="D1"/>
    </vehicle>
    <vehicle id="route1.11" type="v1" depart="63.77" departLane="0" color="yellow">
        <route edges="D1"/>
    </vehicle>
    <vehicle id="route3.11" type="v1" depart="63.77" departLane="2" color="yellow">
        <route edges="D1"/>
    </vehicle>
    <vehicle id="route2.12" type="v1" depart="69.44" departLane="1" color="yellow">
        <route edges="D1"/>
    </vehicle>
    <vehicle id="route1.12" type="v1" depart="69.56" departLane="0" color="yellow">
        <route edges="D1"/>
    </vehicle>
    <vehicle id="route3.12" type="v1" depart="69.56" departLane="2" color="yellow">
        <route edges="D1"/>
    </vehicle>
    <vehicle id="route2.13" type="v1" depart="75.23" departLane="1" color="yellow">
        <route edges="D1"/>
    </vehicle>
    <vehicle id="route1.13" type="v1" depart="75.36" departLane="0" color="yellow">
        <route edges="D1"/>
    </vehicle>
    <vehicle id="route3.13" type="v1" depart="75.36" departLane="2" color="yellow">
        <route edges="D1"/>
    </vehicle>
    <vehicle id="route2.14" type="v1" depart="81.02" departLane="1" color="yellow">
        <route edges="D1"/>
    </vehicle>
    <vehicle id="route1.14" type="v1" depart="81.16" departLane="0" color="yellow">
        <route edges="D1"/>
    </vehicle>
    <vehicle id="route3.14" type="v1" depart="81.16" departLane="2" color="yellow">
        <route edges="D1"/>
    </vehicle>
    <vehicle id="route2.15" type="v1" depart="86.81" departLane="1" color="yellow">
        <route edges="D1"/>
    </vehicle>
    <vehicle id="route1.15" type="v1" depart="86.95" departLane="0" color="yellow">
        <route edges="D1"/>
    </vehicle>
    <vehicle id="route3.15" type="v1" depart="86.95" departLane="2" color="yellow">
        <route edges="D1"/>
    </vehicle>
    <vehicle id="route2.16" type="v1" depart="92.59" departLane="1" color="yellow">
        <route edges="D1"/>
    </vehicle>
    <vehicle id="route1.16" type="v1" depart="92.75" departLane="0" color="yellow">
        <route edges="D1"/>
    </vehicle>
    <vehicle id="route3.16" type="v1" depart="92.75" departLane="2" color="yellow">
        <route edges="D1"/>
    </vehicle>
    <vehicle id="route2.17" type="v1" depart="98.38" departLane="1" color="yellow">
        <route edges="D1"/>
    </vehicle>
    <vehicle id="route1.17" type="v1" depart="98.55" departLane="0" color="yellow">
        <route edges="D1"/>
    </vehicle>
    <vehicle id="route3.17" type="v1" depart="98.55" departLane="2" color="yellow">
        <route edges="D1"/>
    </vehicle>
    <vehicle id="route2.18" type="v1" depart="104.17" departLane="1" color="yellow">
        <route edges="D1"/>
    </vehicle>
    <vehicle id="route1.18" type="v1" depart="104.35" departLane="0" color="yellow">
        <route edges="D1"/>
    </vehicle>
    <vehicle id="route3.18" type="v1" depart="104.35" departLane="2" color="yellow">
        <route edges="D1"/>
    </vehicle>
    <vehicle id="route2.19" type="v1" depart="109.95" departLane="1" color="yellow">
        <route edges="D1"/>
    </vehicle>
    <vehicle id="route1.19" type="v1" depart="110.14" departLane="0" color="yellow">
        <route edges="D1"/>
    </vehicle>
    <vehicle id="route3.19" type="v1" depart="110.14" departLane="2" color="yellow">
        <route edges="D1"/>
    </vehicle>
    <vehicle id="route2.20" type="v1" depart="115.74" departLane="1" color="yellow">
        <route edges="D1"/>
    </vehicle>
    <vehicle id="route1.20" type="v1" depart="115.94" departLane="0" color="yellow">
        <route edges="D1"/>
    </vehicle>
    <vehicle id="route3.20" type="v1" depart="115.94" departLane="2" color="yellow">
        <route edges="D1"/>
    </vehicle>
    <vehicle id="route2.21" type="v1" depart="121.53" departLane="1" color="yellow">
        <route edges="D1"/>
    </vehicle>
    <vehicle id="route1.21" type="v1" depart="121.74" departLane="0" color="yellow">
        <route edges="D1"/>
    </vehicle>
    <vehicle id="route3.21" type="v1" depart="121.74" departLane="2" color="yellow">
        <route edges="D1"/>
    </vehicle>
    <vehicle id="route2.22" type="v1" depart="127.31" departLane="1" color="yellow">
        <route edges="D1"/>
    </vehicle>
    <vehicle id="route1.22" type="v1" depart="127.53" departLane="0" color="yellow">
        <route edges="D1"/>
    </vehicle>
    <vehicle id="route3.22" type="v1" depart="127.53" departLane="2" color="yellow">
        <route edges="D1"/>
    </vehicle>
    <vehicle id="route2.23" type="v1" depart="133.10" departLane="1" color="yellow">
        <route edges="D1"/>
    </vehicle>
    <vehicle id="route1.23" type="v1" depart="133.33" departLane="0" color="yellow">
        <route edges="D1"/>
    </vehicle>
    <vehicle id="route3.23" type="v1" depart="133.33" departLane="2" color="yellow">
        <route edges="D1"/>
    </vehicle>
    <vehicle id="route2.24" type="v1" depart="138.89" departLane="1" color="yellow">
        <route edges="D1"/>
    </vehicle>
    <vehicle id="route1.24" type="v1" depart="139.13" departLane="0" color="yellow">
        <route edges="D1"/>
    </vehicle>
    <vehicle id="route3.24" type="v1" depart="139.13" departLane="2" color="yellow">
        <route edges="D1"/>
    </vehicle>
    <vehicle id="route2.25" type="v1" depart="144.68" departLane="1" color="yellow">
        <route edges="D1"/>
    </vehicle>
    <vehicle id="route1.25" type="v1" depart="144.93" departLane="0" color="yellow">
        <route edges="D1"/>
    </vehicle>
    <vehicle id="route3.25" type="v1" depart="144.93" departLane="2" color="yellow">
        <route edges="D1"/>
    </vehicle>
    <vehicle id="route2.26" type="v1" depart="150.46" departLane="1" color="yellow">
        <route edges="D1"/>
    </vehicle>
    <vehicle id="route1.26" type="v1" depart="150.72" departLane="0" color="yellow">
        <route edges="D1"/>
    </vehicle>
    <vehicle id="route3.26" type="v1" depart="150.72" departLane="2" color="yellow">
        <route edges="D1"/>
    </vehicle>
    <vehicle id="route2.27" type="v1" depart="156.25" departLane="1" color="yellow">
        <route edges="D1"/>
    </vehicle>
    <vehicle id="route1.27" type="v1" depart="156.52" departLane="0" color="yellow">
        <route edges="D1"/>
    </vehicle>
    <vehicle id="route3.27" type="v1" depart="156.52" departLane="2" color="yellow">
        <route edges="D1"/>
    </vehicle>
    <vehicle id="route2.28" type="v1" depart="162.04" departLane="1" color="yellow">
        <route edges="D1"/>
    </vehicle>
    <vehicle id="route1.28" type="v1" depart="162.32" departLane="0" color="yellow">
        <route edges="D1"/>
    </vehicle>
    <vehicle id="route3.28" type="v1" depart="162.32" departLane="2" color="yellow">
        <route edges="D1"/>
    </vehicle>
    <vehicle id="route2.29" type="v1" depart="167.82" departLane="1" color="yellow">
        <route edges="D1"/>
    </vehicle>
    <vehicle id="route1.29" type="v1" depart="168.11" departLane="0" color="yellow">
        <route edges="D1"/>
    </vehicle>
    <vehicle id="route3.29" type="v1" depart="168.11" departLane="2" color="yellow">
        <route edges="D1"/>
    </vehicle>
    <vehicle id="route2.30" type="v1" depart="173.61" departLane="1" color="yellow">
        <route edges="D1"/>
    </vehicle>
    <vehicle id="route1.30" type="v1" depart="173.91" departLane="0" color="yellow">
        <route edges="D1"/>
    </vehicle>
    <vehicle id="route3.30" type="v1" depart="173.91" departLane="2" color="yellow">
        <route edges="D1"/>
    </vehicle>
    <vehicle id="route2.31" type="v1" depart="179.40" departLane="1" color="yellow">
        <route edges="D1"/>
    </vehicle>
    <vehicle id="route1.31" type="v1" depart="179.71" departLane="0" color="yellow">
        <route edges="D1"/>
    </vehicle>
    <vehicle id="route3.31" type="v1" depart="179.71" departLane="2" color="yellow">
        <route edges="D1"/>
    </vehicle>
    <vehicle id="route2.32" type="v1" depart="185.18" departLane="1" color="yellow">
        <route edges="D1"/>
    </vehicle>
    <vehicle id="route1.32" type="v1" depart="185.50" departLane="0" color="yellow">
        <route edges="D1"/>
    </vehicle>
    <vehicle id="route3.32" type="v1" depart="185.50" departLane="2" color="yellow">
        <route edges="D1"/>
    </vehicle>
    <vehicle id="route2.33" type="v1" depart="190.97" departLane="1" color="yellow">
        <route edges="D1"/>
    </vehicle>
    <vehicle id="route1.33" type="v1" depart="191.30" departLane="0" color="yellow">
        <route edges="D1"/>
    </vehicle>
    <vehicle id="route3.33" type="v1" depart="191.30" departLane="2" color="yellow">
        <route edges="D1"/>
    </vehicle>
    <vehicle id="route2.34" type="v1" depart="196.76" departLane="1" color="yellow">
        <route edges="D1"/>
    </vehicle>
    <vehicle id="route1.34" type="v1" depart="197.10" departLane="0" color="yellow">
        <route edges="D1"/>
    </vehicle>
    <vehicle id="route3.34" type="v1" depart="197.10" departLane="2" color="yellow">
        <route edges="D1"/>
    </vehicle>
    <vehicle id="route2.35" type="v1" depart="202.54" departLane="1" color="yellow">
        <route edges="D1"/>
    </vehicle>
    <vehicle id="route1.35" type="v1" depart="202.90" departLane="0" color="yellow">
        <route edges="D1"/>
    </vehicle>
    <vehicle id="route3.35" type="v1" depart="202.90" departLane="2" color="yellow">
        <route edges="D1"/>
    </vehicle>
    <vehicle id="route2.36" type="v1" depart="208.33" departLane="1" color="yellow">
        <route edges="D1"/>
    </vehicle>
    <vehicle id="route1.36" type="v1" depart="208.69" departLane="0" color="yellow">
        <route edges="D1"/>
    </vehicle>
    <vehicle id="route3.36" type="v1" depart="208.69" departLane="2" color="yellow">
        <route edges="D1"/>
    </vehicle>
    <vehicle id="route2.37" type="v1" depart="214.12" departLane="1" color="yellow">
        <route edges="D1"/>
    </vehicle>
    <vehicle id="route1.37" type="v1" depart="214.49" departLane="0" color="yellow">
        <route edges="D1"/>
    </vehicle>
    <vehicle id="route3.37" type="v1" depart="214.49" departLane="2" color="yellow">
        <route edges="D1"/>
    </vehicle>
    <vehicle id="route2.38" type="v1" depart="219.91" departLane="1" color="yellow">
        <route edges="D1"/>
    </vehicle>
    <vehicle id="route1.38" type="v1" depart="220.29" departLane="0" color="yellow">
        <route edges="D1"/>
    </vehicle>
    <vehicle id="route3.38" type="v1" depart="220.29" departLane="2" color="yellow">
        <route edges="D1"/>
    </vehicle>
    <vehicle id="route2.39" type="v1" depart="225.69" departLane="1" color="yellow">
        <route edges="D1"/>
    </vehicle>
    <vehicle id="route1.39" type="v1" depart="226.08" departLane="0" color="yellow">
        <route edges="D1"/>
    </vehicle>
    <vehicle id="route3.39" type="v1" depart="226.08" departLane="2" color="yellow">
        <route edges="D1"/>
    </vehicle>
    <vehicle id="route2.40" type="v1" depart="231.48" departLane="1" color="yellow">
        <route edges="D1"/>
    </vehicle>
    <vehicle id="route1.40" type="v1" depart="231.88" departLane="0" color="yellow">
        <route edges="D1"/>
    </vehicle>
    <vehicle id="route3.40" type="v1" depart="231.88" departLane="2" color="yellow">
        <route edges="D1"/>
    </vehicle>
    <vehicle id="route2.41" type="v1" depart="237.27" departLane="1" color="yellow">
        <route edges="D1"/>
    </vehicle>
    <vehicle id="route1.41" type="v1" depart="237.68" departLane="0" color="yellow">
        <route edges="D1"/>
    </vehicle>
    <vehicle id="route3.41" type="v1" depart="237.68" departLane="2" color="yellow">
        <route edges="D1"/>
    </vehicle>
    <vehicle id="route2.42" type="v1" depart="243.05" departLane="1" color="yellow">
        <route edges="D1"/>
    </vehicle>
    <vehicle id="route1.42" type="v1" depart="243.47" departLane="0" color="yellow">
        <route edges="D1"/>
    </vehicle>
    <vehicle id="route3.42" type="v1" depart="243.47" departLane="2" color="yellow">
        <route edges="D1"/>
    </vehicle>
    <vehicle id="route2.43" type="v1" depart="248.84" departLane="1" color="yellow">
        <route edges="D1"/>
    </vehicle>
    <vehicle id="route1.43" type="v1" depart="249.27" departLane="0" color="yellow">
        <route edges="D1"/>
    </vehicle>
    <vehicle id="route3.43" type="v1" depart="249.27" departLane="2" color="yellow">
        <route edges="D1"/>
    </vehicle>
    <vehicle id="route2.44" type="v1" depart="254.63" departLane="1" color="yellow">
        <route edges="D1"/>
    </vehicle>
    <vehicle id="route1.44" type="v1" depart="255.07" departLane="0" color="yellow">
        <route edges="D1"/>
    </vehicle>
    <vehicle id="route3.44" type="v1" depart="255.07" departLane="2" color="yellow">
        <route edges="D1"/>
    </vehicle>
    <vehicle id="route2.45" type="v1" depart="260.42" departLane="1" color="yellow">
        <route edges="D1"/>
    </vehicle>
    <vehicle id="route1.45" type="v1" depart="260.87" departLane="0" color="yellow">
        <route edges="D1"/>
    </vehicle>
    <vehicle id="route3.45" type="v1" depart="260.87" departLane="2" color="yellow">
        <route edges="D1"/>
    </vehicle>
    <vehicle id="route2.46" type="v1" depart="266.20" departLane="1" color="yellow">
        <route edges="D1"/>
    </vehicle>
    <vehicle id="route1.46" type="v1" depart="266.66" departLane="0" color="yellow">
        <route edges="D1"/>
    </vehicle>
    <vehicle id="route3.46" type="v1" depart="266.66" departLane="2" color="yellow">
        <route edges="D1"/>
    </vehicle>
    <vehicle id="route2.47" type="v1" depart="271.99" departLane="1" color="yellow">
        <route edges="D1"/>
    </vehicle>
    <vehicle id="route1.47" type="v1" depart="272.46" departLane="0" color="yellow">
        <route edges="D1"/>
    </vehicle>
    <vehicle id="route3.47" type="v1" depart="272.46" departLane="2" color="yellow">
        <route edges="D1"/>
    </vehicle>
    <vehicle id="route2.48" type="v1" depart="277.78" departLane="1" color="yellow">
        <route edges="D1"/>
    </vehicle>
    <vehicle id="route1.48" type="v1" depart="278.26" departLane="0" color="yellow">
        <route edges="D1"/>
    </vehicle>
    <vehicle id="route3.48" type="v1" depart="278.26" departLane="2" color="yellow">
        <route edges="D1"/>
    </vehicle>
    <vehicle id="route2.49" type="v1" depart="283.56" departLane="1" color="yellow">
        <route edges="D1"/>
    </vehicle>
    <vehicle id="route1.49" type="v1" depart="284.05" departLane="0" color="yellow">
        <route edges="D1"/>
    </vehicle>
    <vehicle id="route3.49" type="v1" depart="284.05" departLane="2" color="yellow">
        <route edges="D1"/>
    </vehicle>
    <vehicle id="route2.50" type="v1" depart="289.35" departLane="1" color="yellow">
        <route edges="D1"/>
    </vehicle>
    <vehicle id="route1.50" type="v1" depart="289.85" departLane="0" color="yellow">
        <route edges="D1"/>
    </vehicle>
    <vehicle id="route3.50" type="v1" depart="289.85" departLane="2" color="yellow">
        <route edges="D1"/>
    </vehicle>
    <vehicle id="route2.51" type="v1" depart="295.14" departLane="1" color="yellow">
        <route edges="D1"/>
    </vehicle>
    <vehicle id="route1.51" type="v1" depart="295.65" departLane="0" color="yellow">
        <route edges="D1"/>
    </vehicle>
    <vehicle id="route3.51" type="v1" depart="295.65" departLane="2" color="yellow">
        <route edges="D1"/>
    </vehicle>
    <vehicle id="route2.52" type="v1" depart="300.92" departLane="1" color="yellow">
        <route edges="D1"/>
    </vehicle>
    <vehicle id="route1.52" type="v1" depart="301.44" departLane="0" color="yellow">
        <route edges="D1"/>
    </vehicle>
    <vehicle id="route3.52" type="v1" depart="301.44" departLane="2" color="yellow">
        <route edges="D1"/>
    </vehicle>
    <vehicle id="route2.53" type="v1" depart="306.71" departLane="1" color="yellow">
        <route edges="D1"/>
    </vehicle>
    <vehicle id="route1.53" type="v1" depart="307.24" departLane="0" color="yellow">
        <route edges="D1"/>
    </vehicle>
    <vehicle id="route3.53" type="v1" depart="307.24" departLane="2" color="yellow">
        <route edges="D1"/>
    </vehicle>
    <vehicle id="route2.54" type="v1" depart="312.50" departLane="1" color="yellow">
        <route edges="D1"/>
    </vehicle>
    <vehicle id="route1.54" type="v1" depart="313.04" departLane="0" color="yellow">
        <route edges="D1"/>
    </vehicle>
    <vehicle id="route3.54" type="v1" depart="313.04" departLane="2" color="yellow">
        <route edges="D1"/>
    </vehicle>
    <vehicle id="route2.55" type="v1" depart="318.29" departLane="1" color="yellow">
        <route edges="D1"/>
    </vehicle>
    <vehicle id="route1.55" type="v1" depart="318.83" departLane="0" color="yellow">
        <route edges="D1"/>
    </vehicle>
    <vehicle id="route3.55" type="v1" depart="318.83" departLane="2" color="yellow">
        <route edges="D1"/>
    </vehicle>
    <vehicle id="route2.56" type="v1" depart="324.07" departLane="1" color="yellow">
        <route edges="D1"/>
    </vehicle>
    <vehicle id="route1.56" type="v1" depart="324.63" departLane="0" color="yellow">
        <route edges="D1"/>
    </vehicle>
    <vehicle id="route3.56" type="v1" depart="324.63" departLane="2" color="yellow">
        <route edges="D1"/>
    </vehicle>
    <vehicle id="route2.57" type="v1" depart="329.86" departLane="1" color="yellow">
        <route edges="D1"/>
    </vehicle>
    <vehicle id="route1.57" type="v1" depart="330.43" departLane="0" color="yellow">
        <route edges="D1"/>
    </vehicle>
    <vehicle id="route3.57" type="v1" depart="330.43" departLane="2" color="yellow">
        <route edges="D1"/>
    </vehicle>
    <vehicle id="route2.58" type="v1" depart="335.65" departLane="1" color="yellow">
        <route edges="D1"/>
    </vehicle>
    <vehicle id="route1.58" type="v1" depart="336.23" departLane="0" color="yellow">
        <route edges="D1"/>
    </vehicle>
    <vehicle id="route3.58" type="v1" depart="336.23" departLane="2" color="yellow">
        <route edges="D1"/>
    </vehicle>
    <vehicle id="route2.59" type="v1" depart="341.43" departLane="1" color="yellow">
        <route edges="D1"/>
    </vehicle>
    <vehicle id="route1.59" type="v1" depart="342.02" departLane="0" color="yellow">
        <route edges="D1"/>
    </vehicle>
    <vehicle id="route3.59" type="v1" depart="342.02" departLane="2" color="yellow">
        <route edges="D1"/>
    </vehicle>
    <vehicle id="route2.60" type="v1" depart="347.22" departLane="1" color="yellow">
        <route edges="D1"/>
    </vehicle>
    <vehicle id="route1.60" type="v1" depart="347.82" departLane="0" color="yellow">
        <route edges="D1"/>
    </vehicle>
    <vehicle id="route3.60" type="v1" depart="347.82" departLane="2" color="yellow">
        <route edges="D1"/>
    </vehicle>
    <vehicle id="route2.61" type="v1" depart="353.01" departLane="1" color="yellow">
        <route edges="D1"/>
    </vehicle>
    <vehicle id="route1.61" type="v1" depart="353.62" departLane="0" color="yellow">
        <route edges="D1"/>
    </vehicle>
    <vehicle id="route3.61" type="v1" depart="353.62" departLane="2" color="yellow">
        <route edges="D1"/>
    </vehicle>
    <vehicle id="route2.62" type="v1" depart="358.79" departLane="1" color="yellow">
        <route edges="D1"/>
    </vehicle>
    <vehicle id="route1.62" type="v1" depart="359.41" departLane="0" color="yellow">
        <route edges="D1"/>
    </vehicle>
    <vehicle id="route3.62" type="v1" depart="359.41" departLane="2" color="yellow">
        <route edges="D1"/>
    </vehicle>
    <vehicle id="route2.63" type="v1" depart="364.58" departLane="1" color="yellow">
        <route edges="D1"/>
    </vehicle>
    <vehicle id="route1.63" type="v1" depart="365.21" departLane="0" color="yellow">
        <route edges="D1"/>
    </vehicle>
    <vehicle id="route3.63" type="v1" depart="365.21" departLane="2" color="yellow">
        <route edges="D1"/>
    </vehicle>
    <vehicle id="route2.64" type="v1" depart="370.37" departLane="1" color="yellow">
        <route edges="D1"/>
    </vehicle>
    <vehicle id="route1.64" type="v1" depart="371.01" departLane="0" color="yellow">
        <route edges="D1"/>
    </vehicle>
    <vehicle id="route3.64" type="v1" depart="371.01" departLane="2" color="yellow">
        <route edges="D1"/>
    </vehicle>
    <vehicle id="route2.65" type="v1" depart="376.15" departLane="1" color="yellow">
        <route edges="D1"/>
    </vehicle>
    <vehicle id="route1.65" type="v1" depart="376.81" departLane="0" color="yellow">
        <route edges="D1"/>
    </vehicle>
    <vehicle id="route3.65" type="v1" depart="376.81" departLane="2" color="yellow">
        <route edges="D1"/>
    </vehicle>
    <vehicle id="route2.66" type="v1" depart="381.94" departLane="1" color="yellow">
        <route edges="D1"/>
    </vehicle>
    <vehicle id="route1.66" type="v1" depart="382.60" departLane="0" color="yellow">
        <route edges="D1"/>
    </vehicle>
    <vehicle id="route3.66" type="v1" depart="382.60" departLane="2" color="yellow">
        <route edges="D1"/>
    </vehicle>
    <vehicle id="route2.67" type="v1" depart="387.73" departLane="1" color="yellow">
        <route edges="D1"/>
    </vehicle>
    <vehicle id="route1.67" type="v1" depart="388.40" departLane="0" color="yellow">
        <route edges="D1"/>
    </vehicle>
    <vehicle id="route3.67" type="v1" depart="388.40" departLane="2" color="yellow">
        <route edges="D1"/>
    </vehicle>
    <vehicle id="route2.68" type="v1" depart="393.52" departLane="1" color="yellow">
        <route edges="D1"/>
    </vehicle>
    <vehicle id="route1.68" type="v1" depart="394.20" departLane="0" color="yellow">
        <route edges="D1"/>
    </vehicle>
    <vehicle id="route3.68" type="v1" depart="394.20" departLane="2" color="yellow">
        <route edges="D1"/>
    </vehicle>
    <vehicle id="route2.69" type="v1" depart="399.30" departLane="1" color="yellow">
        <route edges="D1"/>
    </vehicle>
    <vehicle id="route1.69" type="v1" depart="399.99" departLane="0" color="yellow">
        <route edges="D1"/>
    </vehicle>
    <vehicle id="route3.69" type="v1" depart="399.99" departLane="2" color="yellow">
        <route edges="D1"/>
    </vehicle>
    <vehicle id="route2.70" type="v1" depart="405.09" departLane="1" color="yellow">
        <route edges="D1"/>
    </vehicle>
    <vehicle id="route1.70" type="v1" depart="405.79" departLane="0" color="yellow">
        <route edges="D1"/>
    </vehicle>
    <vehicle id="route3.70" type="v1" depart="405.79" departLane="2" color="yellow">
        <route edges="D1"/>
    </vehicle>
    <vehicle id="route2.71" type="v1" depart="410.88" departLane="1" color="yellow">
        <route edges="D1"/>
    </vehicle>
    <vehicle id="route1.71" type="v1" depart="411.59" departLane="0" color="yellow">
        <route edges="D1"/>
    </vehicle>
    <vehicle id="route3.71" type="v1" depart="411.59" departLane="2" color="yellow">
        <route edges="D1"/>
    </vehicle>
    <vehicle id="route2.72" type="v1" depart="416.66" departLane="1" color="yellow">
        <route edges="D1"/>
    </vehicle>
    <vehicle id="route1.72" type="v1" depart="417.38" departLane="0" color="yellow">
        <route edges="D1"/>
    </vehicle>
    <vehicle id="route3.72" type="v1" depart="417.38" departLane="2" color="yellow">
        <route edges="D1"/>
    </vehicle>
    <vehicle id="route2.73" type="v1" depart="422.45" departLane="1" color="yellow">
        <route edges="D1"/>
    </vehicle>
    <vehicle id="route1.73" type="v1" depart="423.18" departLane="0" color="yellow">
        <route edges="D1"/>
    </vehicle>
    <vehicle id="route3.73" type="v1" depart="423.18" departLane="2" color="yellow">
        <route edges="D1"/>
    </vehicle>
    <vehicle id="route2.74" type="v1" depart="428.24" departLane="1" color="yellow">
        <route edges="D1"/>
    </vehicle>
    <vehicle id="route1.74" type="v1" depart="428.98" departLane="0" color="yellow">
        <route edges="D1"/>
    </vehicle>
    <vehicle id="route3.74" type="v1" depart="428.98" departLane="2" color="yellow">
        <route edges="D1"/>
    </vehicle>
    <vehicle id="route2.75" type="v1" depart="434.02" departLane="1" color="yellow">
        <route edges="D1"/>
    </vehicle>
    <vehicle id="route1.75" type="v1" depart="434.77" departLane="0" color="yellow">
        <route edges="D1"/>
    </vehicle>
    <vehicle id="route3.75" type="v1" depart="434.77" departLane="2" color="yellow">
        <route edges="D1"/>
    </vehicle>
    <vehicle id="route2.76" type="v1" depart="439.81" departLane="1" color="yellow">
        <route edges="D1"/>
    </vehicle>
    <vehicle id="route1.76" type="v1" depart="440.57" departLane="0" color="yellow">
        <route edges="D1"/>
    </vehicle>