<?xml version="1.0" encoding="UTF-8"?>

<!-- generated on 12/11/21 18:28:12 by Eclipse SUMO duarouter Version 1.2.0
<configuration xmlns:xsi="http://www.w3.org/2001/XMLSchema-instance" xsi:noNamespaceSchemaLocation="http://sumo.dlr.de/xsd/duarouterConfiguration.xsd">

    <input>
        <net-file value="1.net.xml"/>
        <route-files value="750.flow.xml"/>
    </input>

    <output>
        <output-file value="750.rou.xml"/>
        <alternatives-output value="750.rou.alt.xml"/>
    </output>

</configuration>
-->

<routes xmlns:xsi="http://www.w3.org/2001/XMLSchema-instance">
    <vType id="v1"/>
    <vehicle id="route1.0" type="v1" depart="0.00" departLane="0" color="yellow">
        <route edges="D1"/>
    </vehicle>
    <vehicle id="route2.0" type="v1" depart="0.00" departLane="1" color="yellow">
        <route edges="D1"/>
    </vehicle>
    <vehicle id="route3.0" type="v1" depart="0.00" departLane="2" color="yellow">
        <route edges="D1"/>
    </vehicle>
    <vehicle id="route2.1" type="v1" depart="14.29" departLane="1" color="yellow">
        <route edges="D1"/>
    </vehicle>
    <vehicle id="route1.1" type="v1" depart="14.46" departLane="0" color="yellow">
        <route edges="D1"/>
    </vehicle>
    <vehicle id="route3.1" type="v1" depart="14.46" departLane="2" color="yellow">
        <route edges="D1"/>
    </vehicle>
    <vehicle id="route2.2" type="v1" depart="28.57" departLane="1" color="yellow">
        <route edges="D1"/>
    </vehicle>
    <vehicle id="route1.2" type="v1" depart="28.91" departLane="0" color="yellow">
        <route edges="D1"/>
    </vehicle>
    <vehicle id="route3.2" type="v1" depart="28.91" departLane="2" color="yellow">
        <route edges="D1"/>
    </vehicle>
    <vehicle id="route2.3" type="v1" depart="42.85" departLane="1" color="yellow">
        <route edges="D1"/>
    </vehicle>
    <vehicle id="route1.3" type="v1" depart="43.37" departLane="0" color="yellow">
        <route edges="D1"/>
    </vehicle>
    <vehicle id="route3.3" type="v1" depart="43.37" departLane="2" color="yellow">
        <route edges="D1"/>
    </vehicle>
    <vehicle id="route2.4" type="v1" depart="57.14" departLane="1" color="yellow">
        <route edges="D1"/>
    </vehicle>
    <vehicle id="route1.4" type="v1" depart="57.83" departLane="0" color="yellow">
        <route edges="D1"/>
    </vehicle>
    <vehicle id="route3.4" type="v1" depart="57.83" departLane="2" color="yellow">
        <route edges="D1"/>
    </vehicle>
    <vehicle id="route2.5" type="v1" depart="71.42" departLane="1" color="yellow">
        <route edges="D1"/>
    </vehicle>
    <vehicle id="route1.5" type="v1" depart="72.28" departLane="0" color="yellow">
        <route edges="D1"/>
    </vehicle>
    <vehicle id="route3.5" type="v1" depart="72.28" departLane="2" color="yellow">
        <route edges="D1"/>
    </vehicle>
    <vehicle id="route2.6" type="v1" depart="85.71" departLane="1" color="yellow">
        <route edges="D1"/>
    </vehicle>
    <vehicle id="route1.6" type="v1" depart="86.74" departLane="0" color="yellow">
        <route edges="D1"/>
    </vehicle>
    <vehicle id="route3.6" type="v1" depart="86.74" departLane="2" color="yellow">
        <route edges="D1"/>
    </vehicle>
    <vehicle id="route2.7" type="v1" depart="100.00" departLane="1" color="yellow">
        <route edges="D1"/>
    </vehicle>
    <vehicle id="route1.7" type="v1" depart="101.20" departLane="0" color="yellow">
        <route edges="D1"/>
    </vehicle>
    <vehicle id="route3.7" type="v1" depart="101.20" departLane="2" color="yellow">
        <route edges="D1"/>
    </vehicle>
    <vehicle id="route2.8" type="v1" depart="114.28" departLane="1" color="yellow">
        <route edges="D1"/>
    </vehicle>
    <vehicle id="route1.8" type="v1" depart="115.66" departLane="0" color="yellow">
        <route edges="D1"/>
    </vehicle>
    <vehicle id="route3.8" type="v1" depart="115.66" departLane="2" color="yellow">
        <route edges="D1"/>
    </vehicle>
    <vehicle id="route2.9" type="v1" depart="128.57" departLane="1" color="yellow">
        <route edges="D1"/>
    </vehicle>
    <vehicle id="route1.9" type="v1" depart="130.11" departLane="0" color="yellow">
        <route edges="D1"/>
    </vehicle>
    <vehicle id="route3.9" type="v1" depart="130.11" departLane="2" color="yellow">
        <route edges="D1"/>
    </vehicle>
    <vehicle id="route2.10" type="v1" depart="142.85" departLane="1" color="yellow">
        <route edges="D1"/>
    </vehicle>
    <vehicle id="route1.10" type="v1" depart="144.57" departLane="0" color="yellow">
        <route edges="D1"/>
    </vehicle>
    <vehicle id="route3.10" type="v1" depart="144.57" departLane="2" color="yellow">
        <route edges="D1"/>
    </vehicle>
    <vehicle id="route2.11" type="v1" depart="157.13" departLane="1" color="yellow">
        <route edges="D1"/>
    </vehicle>
    <vehicle id="route1.11" type="v1" depart="159.03" departLane="0" color="yellow">
        <route edges="D1"/>
    </vehicle>
    <vehicle id="route3.11" type="v1" depart="159.03" departLane="2" color="yellow">
        <route edges="D1"/>
    </vehicle>
    <vehicle id="route2.12" type="v1" depart="171.42" departLane="1" color="yellow">
        <route edges="D1"/>
    </vehicle>
    <vehicle id="route1.12" type="v1" depart="173.48" departLane="0" color="yellow">
        <route edges="D1"/>
    </vehicle>
    <vehicle id="route3.12" type="v1" depart="173.48" departLane="2" color="yellow">
        <route edges="D1"/>
    </vehicle>
    <vehicle id="route2.13" type="v1" depart="185.71" departLane="1" color="yellow">
        <route edges="D1"/>
    </vehicle>
    <vehicle id="route1.13" type="v1" depart="187.94" departLane="0" color="yellow">
        <route edges="D1"/>
    </vehicle>
    <vehicle id="route3.13" type="v1" depart="187.94" departLane="2" color="yellow">
        <route edges="D1"/>
    </vehicle>
    <vehicle id="route2.14" type="v1" depart="199.99" departLane="1" color="yellow">
        <route edges="D1"/>
    </vehicle>
    <vehicle id="route1.14" type="v1" depart="202.40" departLane="0" color="yellow">
        <route edges="D1"/>
    </vehicle>
    <vehicle id="route3.14" type="v1" depart="202.40" departLane="2" color="yellow">
        <route edges="D1"/>
    </vehicle>
    <vehicle id="route2.15" type="v1" depart="214.28" departLane="1" color="yellow">
        <route edges="D1"/>
    </vehicle>
    <vehicle id="route1.15" type="v1" depart="216.85" departLane="0" color="yellow">
        <route edges="D1"/>
    </vehicle>
    <vehicle id="route3.15" type="v1" depart="216.85" departLane="2" color="yellow">
        <route edges="D1"/>
    </vehicle>
    <vehicle id="route2.16" type="v1" depart="228.56" departLane="1" color="yellow">
        <route edges="D1"/>
    </vehicle>
    <vehicle id="route1.16" type="v1" depart="231.31" departLane="0" color="yellow">
        <route edges="D1"/>
    </vehicle>
    <vehicle id="route3.16" type="v1" depart="231.31" departLane="2" color="yellow">
        <route edges="D1"/>
    </vehicle>
    <vehicle id="route2.17" type="v1" depart="242.85" departLane="1" color="yellow">
        <route edges="D1"/>
    </vehicle>
    <vehicle id="route1.17" type="v1" depart="245.77" departLane="0" color="yellow">
        <route edges="D1"/>
    </vehicle>
    <vehicle id="route3.17" type="v1" depart="245.77" departLane="2" color="yellow">
        <route edges="D1"/>
    </vehicle>
    <vehicle id="route2.18" type="v1" depart="257.13" departLane="1" color="yellow">
        <route edges="D1"/>
    </vehicle>
    <vehicle id="route1.18" type="v1" depart="260.23" departLane="0" color="yellow">
        <route edges="D1"/>
    </vehicle>
    <vehicle id="route3.18" type="v1" depart="260.23" departLane="2" color="yellow">
        <route edges="D1"/>
    </vehicle>
    <vehicle id="route2.19" type="v1" depart="271.42" departLane="1" color="yellow">
        <route edges="D1"/>
    </vehicle>
    <vehicle id="route1.19" type="v1" depart="274.68" departLane="0" color="yellow">
        <route edges="D1"/>
    </vehicle>
    <vehicle id="route3.19" type="v1" depart="274.68" departLane="2" color="yellow">
        <route edges="D1"/>
    </vehicle>
    <vehicle id="route2.20" type="v1" depart="285.70" departLane="1" color="yellow">
        <route edges="D1"/>
    </vehicle>
    <vehicle id="route1.20" type="v1" depart="289.14" departLane="0" color="yellow">
        <route edges="D1"/>
    </vehicle>
    <vehicle id="route3.20" type="v1" depart="289.14" departLane="2" color="yellow">
        <route edges="D1"/>
    </vehicle>
    <vehicle id="route2.21" type="v1" depart="299.99" departLane="1" color="yellow">
        <route edges="D1"/>
    </vehicle>
    <vehicle id="route1.21" type="v1" depart="303.60" departLane="0" color="yellow">
        <route edges="D1"/>
    </vehicle>
    <vehicle id="route3.21" type="v1" depart="303.60" departLane="2" color="yellow">
        <route edges="D1"/>
    </vehicle>
    <vehicle id="route2.22" type="v1" depart="314.27" departLane="1" color="yellow">
        <route edges="D1"/>
    </vehicle>
    <vehicle id="route1.22" type="v1" depart="318.05" departLane="0" color="yellow">
        <route edges="D1"/>
    </vehicle>
    <vehicle id="route3.22" type="v1" depart="318.05" departLane="2" color="yellow">
        <route edges="D1"/>
    </vehicle>
    <vehicle id="route2.23" type="v1" depart="328.56" departLane="1" color="yellow">
        <route edges="D1"/>
    </vehicle>
    <vehicle id="route1.23" type="v1" depart="332.51" departLane="0" color="yellow">
        <route edges="D1"/>
    </vehicle>
    <vehicle id="route3.23" type="v1" depart="332.51" departLane="2" color="yellow">
        <route edges="D1"/>
    </vehicle>
    <vehicle id="route2.24" type="v1" depart="342.84" departLane="1" color="yellow">
        <route edges="D1"/>
    </vehicle>
    <vehicle id="route1.24" type="v1" depart="346.97" departLane="0" color="yellow">
        <route edges="D1"/>
    </vehicle>
    <vehicle id="route3.24" type="v1" depart="346.97" departLane="2" color="yellow">
        <route edges="D1"/>
    </vehicle>
    <vehicle id="route2.25" type="v1" depart="357.13" departLane="1" color="yellow">
        <route edges="D1"/>
    </vehicle>
    <vehicle id="route1.25" type="v1" depart="361.43" departLane="0" color="yellow">
        <route edges="D1"/>
    </vehicle>
    <vehicle id="route3.25" type="v1" depart="361.43" departLane="2" color="yellow">
        <route edges="D1"/>
    </vehicle>
    <vehicle id="route2.26" type="v1" depart="371.41" departLane="1" color="yellow">
        <route edges="D1"/>
    </vehicle>
    <vehicle id="route1.26" type="v1" depart="375.88" departLane="0" color="yellow">
        <route edges="D1"/>
    </vehicle>
    <vehicle id="route3.26" type="v1" depart="375.88" departLane="2" color="yellow">
        <route edges="D1"/>
    </vehicle>
    <vehicle id="route2.27" type="v1" depart="385.69" departLane="1" color="yellow">
        <route edges="D1"/>
    </vehicle>
    <vehicle id="route1.27" type="v1" depart="390.34" departLane="0" color="yellow">
        <route edges="D1"/>
    </vehicle>
    <vehicle id="route3.27" type="v1" depart="390.34" departLane="2" color="yellow">
        <route edges="D1"/>
    </vehicle>
    <vehicle id="route2.28" type="v1" depart="399.98" departLane="1" color="yellow">
        <route edges="D1"/>
    </vehicle>
    <vehicle id="route1.28" type="v1" depart="404.80" departLane="0" color="yellow">
        <route edges="D1"/>
    </vehicle>
    <vehicle id="route3.28" type="v1" depart="404.80" departLane="2" color="yellow">
        <route edges="D1"/>
    </vehicle>
    <vehicle id="route2.29" type="v1" depart="414.26" departLane="1" color="yellow">
        <route edges="D1"/>
    </vehicle>
    <vehicle id="route1.29" type="v1" depart="419.25" departLane="0" color="yellow">
        <route edges="D1"/>
    </vehicle>
    <vehicle id="route3.29" type="v1" depart="419.25" departLane="2" color="yellow">
        <route edges="D1"/>
    </vehicle>
    <vehicle id="route2.30" type="v1" depart="428.55" departLane="1" color="yellow">
        <route edges="D1"/>
    </vehicle>
    <vehicle id="route1.30" type="v1" depart="433.71" departLane="0" color="yellow">
        <route edges="D1"/>
    </vehicle>
    <vehicle id="route3.30" type="v1" depart="433.71" departLane="2" color="yellow">
        <route edges="D1"/>
    </vehicle>
    <vehicle id="route2.31" type="v1" depart="442.83" departLane="1" color="yellow">
        <route edges="D1"/>
    </vehicle>
    <vehicle id="route1.31" type="v1" depart="448.17" departLane="0" color="yellow">
        <route edges="D1"/>
    </vehicle>
    <vehicle id="route3.31" type="v1" depart="448.17" departLane="2" color="yellow">
        <route edges="D1"/>
    </vehicle>
    <vehicle id="route2.32" type="v1" depart="457.12" departLane="1" color="yellow">
        <route edges="D1"/>
    </vehicle>
    <vehicle id="route1.32" type="v1" depart="462.62" departLane="0" color="yellow">
        <route edges="D1"/>
    </vehicle>
    <vehicle id="route3.32" type="v1" depart="462.62" departLane="2" color="yellow">
        <route edges="D1"/>
    </vehicle>
    <vehicle id="route2.33" type="v1" depart="471.40" departLane="1" color="yellow">
        <route edges="D1"/>
    </vehicle>
    <vehicle id="route1.33" type="v1" depart="477.08" departLane="0" color="yellow">
        <route edges="D1"/>
    </vehicle>
    <vehicle id="route3.33" type="v1" depart="477.08" departLane="2" color="yellow">
        <route edges="D1"/>
    </vehicle>
    <vehicle id="route2.34" type="v1" depart="485.69" departLane="1" color="yellow">
        <route edges="D1"/>
    </vehicle>
    <vehicle id="route1.34" type="v1" depart="491.54" departLane="0" color="yellow">
        <route edges="D1"/>
    </vehicle>
    <vehicle id="route3.34" type="v1" depart="491.54" departLane="2" color="yellow">
        <route edges="D1"/>
    </vehicle>
    <vehicle id="route2.35" type="v1" depart="499.98" departLane="1" color="yellow">
        <route edges="D1"/>
    </vehicle>
    <vehicle id="route1.35" type="v1" depart="506.00" departLane="0" color="yellow">
        <route edges="D1"/>
    </vehicle>
    <vehicle id="route3.35" type="v1" depart="506.00" departLane="2" color="yellow">
        <route edges="D1"/>
    </vehicle>
    <vehicle id="route2.36" type="v1" depart="514.26" departLane="1" color="yellow">
        <route edges="D1"/>
    </vehicle>
    <vehicle id="route1.36" type="v1" depart="520.45" departLane="0" color="yellow">
        <route edges="D1"/>
    </vehicle>
    <vehicle id="route3.36" type="v1" depart="520.45" departLane="2" color="yellow">
        <route edges="D1"/>
    </vehicle>
    <vehicle id="route2.37" type="v1" depart="528.54" departLane="1" color="yellow">
        <route edges="D1"/>
    </vehicle>
    <vehicle id="route1.37" type="v1" depart="534.91" departLane="0" color="yellow">
        <route edges="D1"/>
    </vehicle>
    <vehicle id="route3.37" type="v1" depart="534.91" departLane="2" color="yellow">
        <route edges="D1"/>
    </vehicle>
    <vehicle id="route2.38" type="v1" depart="542.83" departLane="1" color="yellow">
        <route edges="D1"/>
    </vehicle>
    <vehicle id="route1.38" type="v1" depart="549.37" departLane="0" color="yellow">
        <route edges="D1"/>
    </vehicle>
    <vehicle id="route3.38" type="v1" depart="549.37" departLane="2" color="yellow">
        <route edges="D1"/>
    </vehicle>
    <vehicle id="route2.39" type="v1" depart="557.12" departLane="1" color="yellow">
        <route edges="D1"/>
    </vehicle>
    <vehicle id="route1.39" type="v1" depart="563.82" departLane="0" color="yellow">
        <route edges="D1"/>
    </vehicle>
    <vehicle id="route3.39" type="v1" depart="563.82" departLane="2" color="yellow">
        <route edges="D1"/>
    </vehicle>
    <vehicle id="route2.40" type="v1" depart="571.40" departLane="1" color="yellow">
        <route edges="D1"/>
    </vehicle>
    <vehicle id="route1.40" type="v1" depart="578.28" departLane="0" color="yellow">
        <route edges="D1"/>
    </vehicle>
    <vehicle id="route3.40" type="v1" depart="578.28" departLane="2" color="yellow">
        <route edges="D1"/>
    </vehicle>
    <vehicle id="route2.41" type="v1" depart="585.68" departLane="1" color="yellow">
        <route edges="D1"/>
    </vehicle>
    <vehicle id="route1.41" type="v1" depart="592.74" departLane="0" color="yellow">
        <route edges="D1"/>
    </vehicle>
    <vehicle id="route3.41" type="v1" depart="592.74" departLane="2" color="yellow">
        <route edges="D1"/>
    </vehicle>
    <vehicle id="route2.42" type="v1" depart="599.97" departLane="1" color="yellow">
        <route edges="D1"/>
    </vehicle>
    <vehicle id="route1.42" type="v1" depart="607.19" departLane="0" color="yellow">
        <route edges="D1"/>
    </vehicle>
    <vehicle id="route3.42" type="v1" depart="607.19" departLane="2" color="yellow">
        <route edges="D1"/>
    </vehicle>
    <vehicle id="route2.43" type="v1" depart="614.26" departLane="1" color="yellow">
        <route edges="D1"/>
    </vehicle>
    <vehicle id="route1.43" type="v1" depart="621.65" departLane="0" color="yellow">
        <route edges="D1"/>
    </vehicle>
    <vehicle id="route3.43" type="v1" depart="621.65" departLane="2" color="yellow">
        <route edges="D1"/>
    </vehicle>
    <vehicle id="route2.44" type="v1" depart="628.54" departLane="1" color="yellow">
        <route edges="D1"/>
    </vehicle>
    <vehicle id="route1.44" type="v1" depart="636.11" departLane="0" color="yellow">
        <route edges="D1"/>
    </vehicle>
    <vehicle id="route3.44" type="v1" depart="636.11" departLane="2" color="yellow">
        <route edges="D1"/>
    </vehicle>
    <vehicle id="route2.45" type="v1" depart="642.83" departLane="1" color="yellow">
        <route edges="D1"/>
    </vehicle>
    <vehicle id="route1.45" type="v1" depart="650.57" departLane="0" color="yellow">
        <route edges="D1"/>
    </vehicle>
    <vehicle id="route3.45" type="v1" depart="650.57" departLane="2" color="yellow">
        <route edges="D1"/>
    </vehicle>
    <vehicle id="route2.46" type="v1" depart="657.11" departLane="1" color="yellow">
        <route edges="D1"/>
    </vehicle>
    <vehicle id="route1.46" type="v1" depart="665.02" departLane="0" color="yellow">
        <route edges="D1"/>
    </vehicle>
    <vehicle id="route3.46" type="v1" depart="665.02" departLane="2" color="yellow">
        <route edges="D1"/>
    </vehicle>
    <vehicle id="route2.47" type="v1" depart="671.39" departLane="1" color="yellow">
        <route edges="D1"/>
    </vehicle>
    <vehicle id="route1.47" type="v1" depart="679.48" departLane="0" color="yellow">
        <route edges="D1"/>
    </vehicle>
    <vehicle id="route3.47" type="v1" depart="679.48" departLane="2" color="yellow">
        <route edges="D1"/>
    </vehicle>
    <vehicle id="route2.48" type="v1" depart="685.68" departLane="1" color="yellow">
        <route edges="D1"/>
    </vehicle>
    <vehicle id="route1.48" type="v1" depart="693.94" departLane="0" color="yellow">
        <route edges="D1"/>
    </vehicle>
    <vehicle id="route3.48" type="v1" depart="693.94" departLane="2" color="yellow">
        <route edges="D1"/>
    </vehicle>
    <vehicle id="route2.49" type="v1" depart="699.97" departLane="1" color="yellow">
        <route edges="D1"/>
    </vehicle>
    <vehicle id="route1.49" type="v1" depart="708.39" departLane="0" color="yellow">
        <route edges="D1"/>
    </vehicle>
    <vehicle id="route3.49" type="v1" depart="708.39" departLane="2" color="yellow">
        <route edges="D1"/>
    </vehicle>
    <vehicle id="route2.50" type="v1" depart="714.25" departLane="1" color="yellow">
        <route edges="D1"/>
    </vehicle>
    <vehicle id="route1.50" type="v1" depart="722.85" departLane="0" color="yellow">
        <route edges="D1"/>
    </vehicle>
    <vehicle id="route3.50" type="v1" depart="722.85" departLane="2" color="yellow">
        <route edges="D1"/>
    </vehicle>
    <vehicle id="route2.51" type="v1" depart="728.53" departLane="1" color="yellow">
        <route edges="D1"/>
    </vehicle>
    <vehicle id="route1.51" type="v1" depart="737.31" departLane="0" color="yellow">
        <route edges="D1"/>
    </vehicle>
    <vehicle id="route3.51" type="v1" depart="737.31" departLane="2" color="yellow">
        <route edges="D1"/>
    </vehicle>
    <vehicle id="route2.52" type="v1" depart="742.82" departLane="1" color="yellow">
        <route edges="D1"/>
    </vehicle>
    <vehicle id="route1.52" type="v1" depart="751.76" departLane="0" color="yellow">
        <route edges="D1"/>
    </vehicle>
    <vehicle id="route3.52" type="v1" depart="751.76" departLane="2" color="yellow">
        <route edges="D1"/>
    </vehicle>
    <vehicle id="route2.53" type="v1" depart="757.11" departLane="1" color="yellow">
        <route edges="D1"/>
    </vehicle>
    <vehicle id="route1.53" type="v1" depart="766.22" departLane="0" color="yellow">
        <route edges="D1"/>
    </vehicle>
    <vehicle id="route3.53" type="v1" depart="766.22" departLane="2" color="yellow">
        <route edges="D1"/>
    </vehicle>
    <vehicle id="route2.54" type="v1" depart="771.39" departLane="1" color="yellow">
        <route edges="D1"/>
    </vehicle>
    <vehicle id="route1.54" type="v1" depart="780.68" departLane="0" color="yellow">
        <route edges="D1"/>
    </vehicle>
    <vehicle id="route3.54" type="v1" depart="780.68" departLane="2" color="yellow">
        <route edges="D1"/>
    </vehicle>
    <vehicle id="route2.55" type="v1" depart="785.67" departLane="1" color="yellow">
        <route edges="D1"/>
    </vehicle>
    <vehicle id="route1.55" type="v1" depart="795.13" departLane="0" color="yellow">
        <route edges="D1"/>
    </vehicle>
    <vehicle id="route3.55" type="v1" depart="795.13" departLane="2" color="yellow">
        <route edges="D1"/>
    </vehicle>
    <vehicle id="route2.56" type="v1" depart="799.96" departLane="1" color="yellow">
        <route edges="D1"/>
    </vehicle>
    <vehicle id="route1.56" type="v1" depart="809.59" departLane="0" color="yellow">
        <route edges="D1"/>
    </vehicle>
    <vehicle id="route3.56" type="v1" depart="809.59" departLane="2" color="yellow">
        <route edges="D1"/>
    </vehicle>
    <vehicle id="route2.57" type="v1" depart="814.25" departLane="1" color="yellow">
        <route edges="D1"/>
    </vehicle>
    <vehicle id="route1.57" type="v1" depart="824.05" departLane="0" color="yellow">
        <route edges="D1"/>
    </vehicle>
    <vehicle id="route3.57" type="v1" depart="824.05" departLane="2" color="yellow">
        <route edges="D1"/>
    </vehicle>
    <vehicle id="route2.58" type="v1" depart="828.53" departLane="1" color="yellow">
        <route edges="D1"/>
    </vehicle>
    <vehicle id="route1.58" type="v1" depart="838.51" departLane="0" color="yellow">
        <route edges="D1"/>
    </vehicle>
    <vehicle id="route3.58" type="v1" depart="838.51" departLane="2" color="yellow">
        <route edges="D1"/>
    </vehicle>
    <vehicle id="route2.59" type="v1" depart="842.82" departLane="1" color="yellow">
        <route edges="D1"/>
    </vehicle>
    <vehicle id="route1.59" type="v1" depart="852.96" departLane="0" color="yellow">
        <route edges="D1"/>
    </vehicle>
    <vehicle id="route3.59" type="v1" depart="852.96" departLane="2" color="yellow">
        <route edges="D1"/>
    </vehicle>
    <vehicle id="route2.60" type="v1" depart="857.10" departLane="1" color="yellow">
        <route edges="D1"/>
    </vehicle>
    <vehicle id="route1.60" type="v1" depart="867.42" departLane="0" color="yellow">
        <route edges="D1"/>
    </vehicle>
    <vehicle id="route3.60" type="v1" depart="867.42" departLane="2" color="yellow">
        <route edges="D1"/>
    </vehicle>
    <vehicle id="route2.61" type="v1" depart="871.38" departLane="1" color="yellow">
        <route edges="D1"/>
    </vehicle>
    <vehicle id="route1.61" type="v1" depart="881.88" departLane="0" color="yellow">
        <route edges="D1"/>
    </vehicle>
    <vehicle id="route3.61" type="v1" depart="881.88" departLane="2" color="yellow">
        <route edges="D1"/>
    </vehicle>
    <vehicle id="route2.62" type="v1" depart="885.67" departLane="1" color="yellow">
        <route edges="D1"/>
    </vehicle>
    <vehicle id="route1.62" type="v1" depart="896.33" departLane="0" color="yellow">
        <route edges="D1"/>
    </vehicle>
    <vehicle id="route3.62" type="v1" depart="896.33" departLane="2" color="yellow">
        <route edges="D1"/>
    </vehicle>
    <vehicle id="route2.63" type="v1" depart="899.96" departLane="1" color="yellow">
        <route edges="D1"/>
    </vehicle>
    <vehicle id="route1.63" type="v1" depart="910.79" departLane="0" color="yellow">
        <route edges="D1"/>
    </vehicle>
    <vehicle id="route3.63" type="v1" depart="910.79" departLane="2" color="yellow">
        <route edges="D1"/>
    </vehicle>
    <vehicle id="route2.64" type="v1" depart="914.24" departLane="1" color="yellow">
        <route edges="D1"/>
    </vehicle>
    <vehicle id="route1.64" type="v1" depart="925.25" departLane="0" color="yellow">
        <route edges="D1"/>
    </vehicle>
    <vehicle id="route3.64" type="v1" depart="925.25" departLane="2" color="yellow">
        <route edges="D1"/>
    </vehicle>
    <vehicle id="route2.65" type="v1" depart="928.52" departLane="1" color="yellow">
        <route edges="D1"/>
    </vehicle>
    <vehicle id="route1.65" type="v1" depart="939.71" departLane="0" color="yellow">
        <route edges="D1"/>
    </vehicle>
    <vehicle id="route3.65" type="v1" depart="939.71" departLane="2" color="yellow">
        <route edges="D1"/>
    </vehicle>
    <vehicle id="route2.66" type="v1" depart="942.81" departLane="1" color="yellow">
        <route edges="D1"/>
    </vehicle>
    <vehicle id="route1.66" type="v1" depart="954.16" departLane="0" color="yellow">
        <route edges="D1"/>
    </vehicle>
    <vehicle id="route3.66" type="v1" depart="954.16" departLane="2" color="yellow">
        <route edges="D1"/>
    </vehicle>
    <vehicle id="route2.67" type="v1" depart="957.10" departLane="1" color="yellow">
        <route edges="D1"/>
    </vehicle>
    <vehicle id="route1.67" type="v1" depart="968.62" departLane="0" color="yellow">
        <route edges="D1"/>
    </vehicle>
    <vehicle id="route3.67" type="v1" depart="968.62" departLane="2" color="yellow">
        <route edges="D1"/>
    </vehicle>
    <vehicle id="route2.68" type="v1" depart="971.38" departLane="1" color="yellow">
        <route edges="D1"/>
    </vehicle>
    <vehicle id="route1.68" type="v1" depart="983.08" departLane="0" color="yellow">
        <route edges="D1"/>
    </vehicle>
    <vehicle id="route3.68" type="v1" depart="983.08" departLane="2" color="yellow">
        <route edges="D1"/>
    </vehicle>
    <vehicle id="route2.69" type="v1" depart="985.66" departLane="1" color="yellow">
        <route edges="D1"/>
    </vehicle>
    <vehicle id="route1.69" type="v1" depart="997.53" departLane="0" color="yellow">
        <route edges="D1"/>
    </vehicle>
    <vehicle id="route3.69" type="v1" depart="997.53" departLane="2" color="yellow">
        <route edges="D1"/>
    </vehicle>
    <vehicle id="route2.70" type="v1" depart="999.95" departLane="1" color="yellow">
        <route edges="D1"/>
    </vehicle>
    <vehicle id="route1.70" type="v1" depart="1011.99" departLane="0" color="yellow">
        <route edges="D1"/>
    </vehicle>
    <vehicle id="route3.70" type="v1" depart="1011.99" departLane="2" color="yellow">
        <route edges="D1"/>
    </vehicle>
    <vehicle id="route2.71" type="v1" depart="1014.24" departLane="1" color="yellow">
        <route edges="D1"/>
    </vehicle>
    <vehicle id="route1.71" type="v1" depart="1026.45" departLane="0" color="yellow">
        <route edges="D1"/>
    </vehicle>
    <vehicle id="route3.71" type="v1" depart="1026.45" departLane="2" color="yellow">
        <route edges="D1"/>
    </vehicle>
    <vehicle id="route2.72" type="v1" depart="1028.52" departLane="1" color="yellow">
        <route edges="D1"/>
    </vehicle>
    <vehicle id="route1.72" type="v1" depart="1040.90" departLane="0" color="yellow">
        <route edges="D1"/>
    </vehicle>
    <vehicle id="route3.72" type="v1" depart="1040.90" departLane="2" color="yellow">
        <route edges="D1"/>
    </vehicle>
    <vehicle id="route2.73" type="v1" depart="1042.81" departLane="1" color="yellow">
        <route edges="D1"/>
    </vehicle>
    <vehicle id="route1.73" type="v1" depart="1055.36" departLane="0" color="yellow">
        <route edges="D1"/>
    </vehicle>
    <vehicle id="route3.73" type="v1" depart="1055.36" departLane="2" color="yellow">
        <route edges="D1"/>
    </vehicle>
    <vehicle id="route2.74" type="v1" depart="1057.09" departLane="1" color="yellow">
        <route edges="D1"/>
    </vehicle>
    <vehicle id="route1.74" type="v1" depart="1069.82" departLane="0" color="yellow">
        <route edges="D1"/>
    </vehicle>