<additional>
  
  <inductionLoop id="myLoop4" lane="D1_0" pos="1200" freq="10" file="out4.txt"/>

  <inductionLoop id="myLoop5" lane="D1_1" pos="1200" freq="10" file="out5.txt"/>

  <inductionLoop id="myLoop6" lane="D1_2" pos="1200" freq="10" file="out6.txt"/>
  
  <inductionLoop id="myLoop7" lane="D1_0" pos="800" freq="10" file="out1.txt"/>

  <inductionLoop id="myLoop8" lane="D1_1" pos="800" freq="10" file="out2.txt"/>

  <inductionLoop id="myLoop9" lane="D1_2" pos="800" freq="10" file="out3.txt"/>
</additional>