<types>

<type  numLanes="3" priority="3" id="a"/>

</types>