<nodes>

<node y="100.0" x="0.0" id="1"/>

<node y="100.0" x="+5000.0" id="2"/>




</nodes>